ELEMENTS
O  H  C  N Ar
END

SPECIES
AR
H2
H
O
H2O
OH
O2
HO2
H2O2
CH2O
HCO
CO
CO2
N
NH
NO
N2
NO2
N2O
HNO
HONO
NO3
HNO3
NH2
NNH
NH3
HCN
CN
NCO
HOCN
HNCO
HNC
C2N2
NCN
CNO
HCNO
H2CN
H2CNH
H2CNO
H2CNNO
H2CNNO2
HMX
HMXR
HMXRO
!
! Added by Lalit Patidar
HCOOH
HOCO
OCHO
ONNO2
!
ONTNTA
INT279a
INT249a
INT202a
INT101a
!
INT121a
INT121b
INT90a
INT62a
!
INT206e
INT132a
INT86a
INT86e
!
INT162b
INT132d
CH2NHCHO
!
CH2NCO
INT105a
INT75f
INT120b
!
INT295a
!
INT74a
INT92a
!
INT250a
INT220a
INT191d
INT117b
!
INT233a
INT232a
!
RDXRO
INT176
INT149
MNH
END

THERMO
    398.15    1000.00    3198.15
O                 L 1/90O   1               G   200.000  3500.000  1000.000    1
 2.56942078E+00-8.59741137E-05 4.19484589E-08-1.00177799E-11 1.22833691E-15    2
 2.92175791E+04 4.78433864E+00 3.16826710E+00-3.27931884E-03 6.64306396E-06    3
-6.12806624E-09 2.11265971E-12 2.91222592E+04 2.05193346E+00                   4
O2                TPIS89O   2               G   200.000  3500.000  1000.000    1
 3.28253784E+00 1.48308754E-03-7.57966669E-07 2.09470555E-10-2.16717794E-14    2
-1.08845772E+03 5.45323129E+00 3.78245636E+00-2.99673416E-03 9.84730201E-06    3
-9.68129509E-09 3.24372837E-12-1.06394356E+03 3.65767573E+00                   4
H                 L 7/88H   1               G   200.000  3500.000  1000.000    1
 2.50000001E+00-2.30842973E-11 1.61561948E-14-4.73515235E-18 4.98197357E-22    2
 2.54736599E+04-4.46682914E-01 2.50000000E+00 7.05332819E-13-1.99591964E-15    3
 2.30081632E-18-9.27732332E-22 2.54736599E+04-4.46682853E-01                   4
H2                TPIS78H   2               G   200.000  3500.000  1000.000    1
 3.33727920E+00-4.94024731E-05 4.99456778E-07-1.79566394E-10 2.00255376E-14    2
-9.50158922E+02-3.20502331E+00 2.34433112E+00 7.98052075E-03-1.94781510E-05    3
 2.01572094E-08-7.37611761E-12-9.17935173E+02 6.83010238E-01                   4
OH                RUS 78O   1H   1          G   200.000  3500.000  1000.000    1
 3.09288767E+00 5.48429716E-04 1.26505228E-07-8.79461556E-11 1.17412376E-14    2
 3.85865700E+03 4.47669610E+00 3.99201543E+00-2.40131752E-03 4.61793841E-06    3
-3.88113333E-09 1.36411470E-12 3.61508056E+03-1.03925458E-01                   4
H2O               L 8/89H   2O   1          G   200.000  3500.000  1000.000    1
 3.03399249E+00 2.17691804E-03-1.64072518E-07-9.70419870E-11 1.68200992E-14    2
-3.00042971E+04 4.96677010E+00 4.19864056E+00-2.03643410E-03 6.52040211E-06    3
-5.48797062E-09 1.77197817E-12-3.02937267E+04-8.49032208E-01                   4
HO2               L 5/89H   1O   2          G   200.000  3500.000  1000.000    1
 4.01721090E+00 2.23982013E-03-6.33658150E-07 1.14246370E-10-1.07908535E-14    2
 1.11856713E+02 3.78510215E+00 4.30179801E+00-4.74912051E-03 2.11582891E-05    3
-2.42763894E-08 9.29225124E-12 2.94808040E+02 3.71666245E+00                   4
H2O2              L 7/88H   2O   2          G   200.000  3500.000  1000.000    1
 4.16500285E+00 4.90831694E-03-1.90139225E-06 3.71185986E-10-2.87908305E-14    2
-1.78617877E+04 2.91615662E+00 4.27611269E+00-5.42822417E-04 1.67335701E-05    3
-2.15770813E-08 8.62454363E-12-1.77025821E+04 3.43505074E+00                   4
CO                TPIS79C   1O   1          G   200.000  3500.000  1000.000    1
 2.71518561E+00 2.06252743E-03-9.98825771E-07 2.30053008E-10-2.03647716E-14    2
-1.41518724E+04 7.81868772E+00 3.57953347E+00-6.10353680E-04 1.01681433E-06    3
 9.07005884E-10-9.04424499E-13-1.43440860E+04 3.50840928E+00                   4
CO2               L 7/88C   1O   2          G   200.000  3500.000  1000.000    1
 3.85746029E+00 4.41437026E-03-2.21481404E-06 5.23490188E-10-4.72084164E-14    2
-4.87591660E+04 2.27163806E+00 2.35677352E+00 8.98459677E-03-7.12356269E-06    3
 2.45919022E-09-1.43699548E-13-4.83719697E+04 9.90105222E+00                   4
HCO               L12/89H   1C   1O   1     G   200.000  3500.000  1000.000    1
 2.77217438E+00 4.95695526E-03-2.48445613E-06 5.89161778E-10-5.33508711E-14    2
 4.01191815E+03 9.79834492E+00 4.22118584E+00-3.24392532E-03 1.37799446E-05    3
-1.33144093E-08 4.33768865E-12 3.83956496E+03 3.39437243E+00                   4
CH2O              L 8/88H   2C   1O   1     G   200.000  3500.000  1000.000    1
 1.76069008E+00 9.20000082E-03-4.42258813E-06 1.00641212E-09-8.83855640E-14    2
-1.39958323E+04 1.36563230E+01 4.79372315E+00-9.90833369E-03 3.73220008E-05    3
-3.79285261E-08 1.31772652E-11-1.43089567E+04 6.02812900E-01                   4
H2CN               41687H   2C   1N   1     G   300.00   4000.000  1000.000    1
 0.52097030E+01 0.29692911E-02-0.28555891E-06-0.16355500E-09 0.30432589E-13    2
 0.27677109E+05-0.44444780E+01 0.28516610E+01 0.56952331E-02 0.10711400E-05    3
-0.16226120E-08-0.23511081E-12 0.28637820E+05 0.89927511E+01                   4
HCN               GRI/98H   1C   1N   1     G   200.000  6000.000  1000.000    1
 0.38022392E+01 0.31464228E-02-0.10632185E-05 0.16619757E-09-0.97997570E-14    2
 0.14407292E+05 0.15754601E+01 0.22589886E+01 0.10051170E-01-0.13351763E-04    3
 0.10092349E-07-0.30089028E-11 0.14712633E+05 0.89164419E+01                   4
HNO               And93 H   1N   1O   1     G   200.000  6000.000  1000.000    1
 0.29792509E+01 0.34944059E-02-0.78549778E-06 0.57479594E-10-0.19335916E-15    2
 0.11750582E+05 0.86063728E+01 0.45334916E+01-0.56696171E-02 0.18473207E-04    3
-0.17137094E-07 0.55454573E-11 0.11548297E+05 0.17498417E+01                   4
N                 L 6/88N   1               G   200.000  6000.000  1000.000    1
 0.24159429E+01 0.17489065E-03-0.11902369E-06 0.30226245E-10-0.20360982E-14    2
 0.56133773E+05 0.46496096E+01 0.25000000E+01 0.00000000E+00 0.00000000E+00    3
 0.00000000E+00 0.00000000E+00 0.56104637E+05 0.41939087E+01                   4
NNH               T07/93N   2H   1          G   200.000  6000.000  1000.000    1
 0.37667544E+01 0.28915082E-02-0.10416620E-05 0.16842594E-09-0.10091896E-13    2
 0.28650697E+05 0.44705067E+01 0.43446927E+01-0.48497072E-02 0.20059459E-04    3
-0.21726464E-07 0.79469539E-11 0.28791973E+05 0.29779410E+01                   4
N2O               L 7/88N   2O   1          G   200.000  6000.000  1000.000    1
 0.48230729E+01 0.26270251E-02-0.95850874E-06 0.16000712E-09-0.97752303E-14    2
 0.80734048E+04-0.22017207E+01 0.22571502E+01 0.11304728E-01-0.13671319E-04    3
 0.96819806E-08-0.29307182E-11 0.87417744E+04 0.10757992E+02                   4
NH                And94 N   1H   1          G   200.000  6000.000  1000.000    1
 0.27836928E+01 0.13298430E-02-0.42478047E-06 0.78348501E-10-0.55044470E-14    2
 0.42120848E+05 0.57407799E+01 0.34929085E+01 0.31179198E-03-0.14890484E-05    3
 0.24816442E-08-0.10356967E-11 0.41880629E+05 0.18483278E+01                   4
NH2               And89 N   1H   2          G   200.000  6000.000  1000.000    1
 0.28347421E+01 0.32073082E-02-0.93390804E-06 0.13702953E-09-0.79206144E-14    2
 0.22171957E+05 0.65204163E+01 0.42040029E+01-0.21061385E-02 0.71068348E-05    3
-0.56115197E-08 0.16440717E-11 0.21885910E+05-0.14184248E+00                   4
NH3               J 6/77N   1H   3          G   200.000  6000.000  1000.000    1
 0.26344521E+01 0.56662560E-02-0.17278676E-05 0.23867161E-09-0.12578786E-13    2
-0.65446958E+04 0.65662928E+01 0.42860274E+01-0.46605230E-02 0.21718513E-04    3
-0.22808887E-07 0.82638046E-11-0.67417285E+04-0.62537277E+00                   4
NO                RUS 78N   1O   1          G   200.000  6000.000  1000.000    1
 0.32606056E+01 0.11911043E-02-0.42917048E-06 0.69457669E-10-0.40336099E-14    2
 0.99209746E+04 0.63693027E+01 0.42184763E+01-0.46389760E-02 0.11041022E-04    3
-0.93361354E-08 0.28035770E-11 0.98446230E+04 0.22808464E+01                   4
NO2               L 7/88N   1O   2          G   200.000  6000.000  1000.000    1
 0.48847542E+01 0.21723956E-02-0.82806906E-06 0.15747510E-09-0.10510895E-13    2
 0.23164983E+04-0.11741695E+00 0.39440312E+01-0.15854290E-02 0.16657812E-04    3
-0.20475426E-07 0.78350564E-11 0.28966179E+04 0.63119917E+01                   4
HCNO              BDEA94H   1N   1C   1O   1G   300.000  5000.000  1382.000    1
 6.59860456E+00 3.02778626E-03-1.07704346E-06 1.71666528E-10-1.01439391E-14    2
 1.79661339E+04-1.03306599E+01 2.64727989E+00 1.27505342E-02-1.04794236E-05    3
 4.41432836E-09-7.57521466E-13 1.92990252E+04 1.07332972E+01                   4
HOCN              BDEA94H   1N   1C   1O   1G   300.000  5000.000  1368.000    1
 5.89784885E+00 3.16789393E-03-1.11801064E-06 1.77243144E-10-1.04339177E-14    2
-3.70653331E+03-6.18167825E+00 3.78604952E+00 6.88667922E-03-3.21487864E-06    3
 5.17195767E-10 1.19360788E-14-2.82698400E+03 5.63292162E+00                   4
HNCO              BDEA94H   1N   1C   1O   1G   300.000  5000.000  1478.000    1
 6.22395134E+00 3.17864004E-03-1.09378755E-06 1.70735163E-10-9.95021955E-15    2
-1.66599344E+04-8.38224741E+00 3.63096317E+00 7.30282357E-03-2.28050003E-06    3
-6.61271298E-10 3.62235752E-13-1.55873636E+04 6.19457727E+00                   4
NCO               EA 93 N   1C   1O   1     G   200.000  6000.000  1000.000    1
 0.51521845E+01 0.23051761E-02-0.88033153E-06 0.14789098E-09-0.90977996E-14    2
 0.14004123E+05-0.25442660E+01 0.28269308E+01 0.88051688E-02-0.83866134E-05    3
 0.48016964E-08-0.13313595E-11 0.14682477E+05 0.95504646E+01                   4
CN                HBH92 C   1N   1          G   200.000  6000.000  1000.000    1
 0.37459805E+01 0.43450775E-04 0.29705984E-06-0.68651806E-10 0.44134173E-14    2
 0.51536188E+05 0.27867601E+01 0.36129351E+01-0.95551327E-03 0.21442977E-05    3
-0.31516323E-09-0.46430356E-12 0.51708340E+05 0.39804995E+01                   4
N2                121286N   2               G   300.000  5000.000  1000.000    1
 0.02926640E+02 0.14879768E-02-0.05684760E-05 0.10097038E-09-0.06753351E-13    2
-0.09227977E+04 0.05980528E+02 0.03298677E+02 0.14082404E-02-0.03963222E-04    3
 0.05641515E-07-0.02444854E-10-0.10208999E+04 0.03950372E+02                   4
AR                120186AR  1               G   300.000  5000.000  1000.000    1
 0.02500000E+02 0.00000000E+00 0.00000000E+00 0.00000000E+00 0.00000000E+00    2
-0.07453750E+04 0.04366000E+02 0.02500000E+02 0.00000000E+00 0.00000000E+00    3
 0.00000000E+00 0.00000000E+00-0.07453750E+04 0.04366000E+02                   4
HONO                    C   0H   1N   1O   2G    200.00   5000.00 1000.00      1
 5.27704082E+00 4.42589199E-03-1.74373536E-06 3.16949034E-10-2.17181464E-14    2
-1.11845046E+04-2.07227677E+00 2.46262439E+00 1.09947309E-02-4.15619019E-06    3
-3.78497959E-09 2.73824278E-12-1.03768660E+04 1.26837310E+01                   4
HMX                     C   4H   8N   8O   8G    398.15   3198.15 1000.00      1
 0.44706383E+02 0.23770308E-01-0.23496857E-05-0.13309834E-08 0.24969374E-12    2
 0.96820439E+04-0.20686334E+03 0.14581933E+02 0.59781540E-01 0.14615893E-04    3
-0.22798060E-07-0.11355850E-11 0.21789510E+05-0.35763046E+02                   4
HMXR                    C   4H   8N   7O   6G    398.15   3198.15 1000.00      1
 0.38878056E+02 0.21647334E-01-0.21212836E-05-0.12125710E-08 0.22683071E-12    2
 0.30438586E+05-0.17799850E+03 0.12213440E+02 0.53412564E-01 0.13135931E-04    3
-0.20364254E-07-0.97931515E-12 0.41164000E+05-0.26514259E+02                   4
HMXRO                   C   4H   8N   7O   6G    398.15   3198.15 1000.00      1
 0.39544712E+02 0.21171039E-01-0.20781199E-05-0.11786606E-08 0.22048617E-12    2
 0.36074695E+05-0.17392920E+03 0.15418386E+02 0.48350275E-01 0.12997955E-04    3
-0.16363240E-07-0.27239196E-11 0.45971078E+05-0.36190086E+02                   4
NO3                     C   0H   0N   1O   3G    398.15   3198.15 1000.00      1
 7.48347702E+00 2.57772064E-03-1.00945831E-06 1.72314063E-10-1.07154008E-14    2
 6.12990474E+03-1.41618136E+01 2.17359330E+00 1.04902685E-02 1.10472669E-05    3
-2.81561867E-08 1.36583960E-11 7.81290905E+03 1.46022090E+01                   4
HNO3                    C   0H   1N   1O   3G    398.15   3198.15 1000.00      1
 8.03098942E+00 4.46958589E-03-1.72459491E-06 2.91556153E-10-1.80102702E-14    2
-1.93138183E+04-1.62616537E+01 1.69329154E+00 1.90167702E-02-8.25176697E-06    3
-6.06113827E-09 4.65236978E-12-1.74198909E+04 1.71839838E+01                   4
HNC                     C   1H   1N   1O   0G    398.15   3198.15 1000.00      1
 4.22248262E+00 2.59458082E-03-8.58480324E-07 1.30744940E-10-7.50339813E-15    2
 2.17156730E+04-7.79706410E-02 2.30186822E+00 1.54157449E-02-3.13261898E-05    3
 3.08816218E-08-1.11912204E-11 2.19306327E+04 8.14749128E+00 2.30810956E+04    4
C2N2                    C   2H   0N   2O   0G    398.15   3198.15 1000.00      1
 6.70549520E+00 3.64271185E-03-1.30939702E-06 2.16421413E-10-1.31193815E-14    2
 3.48824335E+04-1.04803146E+01 2.32928126E+00 2.61540993E-02-4.90009889E-05    3
 4.61923035E-08-1.64325831E-11 3.56900732E+04 9.86348075E+00 3.71976220E+04    4
NCN                     C   1H   0N   2O   0G    398.15   3198.15 1000.00      1
 5.68744173E+00 1.82662756E-03-7.07546249E-07 1.19515592E-10-7.31827071E-15    2
 5.15901177E+04-6.31954433E+00 2.79807977E+00 1.00008683E-02-9.59229469E-06    3
 4.75546842E-09-1.04340146E-12 5.24021705E+04 8.62129767E+00 5.36050832E+04    4
CNO                     C   1H   0N   1O   1G    398.15   3198.15 1000.00      1
 5.33613774E+00 2.11235559E-03-8.03844696E-07 1.34732128E-10-8.27526871E-15    2
 4.50591489E+04-3.58481550E+00 3.24202666E+00 9.60220523E-03-1.36429297E-05    3
 1.18397251E-08-4.26992179E-12 4.56141112E+04 6.97423157E+00 4.69083566E+04    4
H2CNH                   C   1H   3N   1O   0G    200.00   5000.00 1000.00      1
 2.60477830E+00 9.67470192E-03-3.77804321E-06 6.80957301E-10-4.63234624E-14    2
 9.01663075E+03 9.30350167E+00 4.54772477E+00-1.02342002E-02 4.83416128E-05    3
-5.27984841E-08 1.92794176E-11 9.15962882E+03 2.72622229E+00                   4
H2CNO                   C   1H   2N   1O   1G    200.00   5000.00 1000.00      1
 0.54028152E+01 0.69057001E-02-0.25162977E-05 0.41014066E-09-0.24718300E-13    2
 0.24528690E+05-0.44574262E+01 0.38781858E+01-0.66530886E-02 0.53947610E-04    3
-0.68176813E-07 0.27181746E-10 0.25716857E+05 0.74618774E+01 0.26932156E+05    4
H2CNNO2                 C   1H   2N   2O   2G    200.00   5000.00 1000.00      1
 8.21641430E+00 1.07532408E-02-4.41013890E-06 8.23089449E-10-5.74244865E-14    2
 1.24421890E+04-1.50483199E+01 2.60772153E+00 2.03182921E-02 7.51945585E-07    3
-1.69518026E-08 8.59902454E-12 1.42600945E+04 1.53099155E+01                   4
H2CNNO                  C   1H   2N   2O   1G    200.00   5000.00 1000.00      1
 6.66948498E+00 9.14867590E-03-3.70747594E-06 6.86080232E-10-4.75703373E-14    2
 2.44565084E+04-7.60178674E+00 3.28409525E+00 1.43018012E-02 8.20508584E-07    3
-1.10577511E-08 5.40054090E-12 2.56023429E+04 1.09191222E+01                   4
!
!-------------------------------------------------------------------------------
! Added by Lalit Patidar
!-------------------------------------------------------------------------------
!
HCOOH                   C   1H   2N   0O   2G    200.00   5000.00 1000.00      1
 4.61076536E+00 7.78325976E-03-3.04251455E-06 5.49712369E-10-3.74950753E-14    2
-4.72260113E+04 7.05454222E-01 3.02895199E+00 4.13572849E-03 1.96224071E-05    3
-2.84677728E-08 1.15444130E-11-4.64374165E+04 1.07243223E+01                   4
HOCO                    C   1H   1N   0O   2G    200.00   5000.00 1000.00      1
 5.12187670E+00 4.40293191E-03-1.69161832E-06 3.02322854E-10-2.04769166E-14    2
-2.42882953E+04-6.53432471E-01 2.81951948E+00 9.59209563E-03-3.34323209E-06    3
-3.11584931E-09 2.16250252E-12-2.36120348E+04 1.14809768E+01                   4
OCHO                    C   1H   1N   0O   2G    200.00   5000.00 1000.00      1
 5.65395658E+00 4.58531860E-03-1.94724411E-06 3.71672764E-10-2.63246046E-14    2
-1.76907044E+04-3.31294356E+00 3.34490280E+00 8.66156144E-03-1.33063940E-06    3
-4.27626690E-09 2.23782129E-12-1.69161512E+04 9.23616643E+00                   4
ONNO2                   C   0H   0N   2O   3G    200.00   5000.00 1000.00      1
 8.16196088E+00 5.19195565E-03-2.22839697E-06 4.28312196E-10-3.04823173E-14    2
 7.01725832E+03-1.25973542E+01 3.62470377E+00 2.03739634E-02-2.44029912E-05    3
 1.72949585E-08-5.36728490E-12 8.20574195E+03 1.03621822E+01                   4
!
ONTNTA                  C   4H   8N   8O   7G    200.00   5000.00 1000.00      1
 3.10236238E+01 4.84257919E-02-2.00233785E-05 3.75796445E-09-2.63208655E-13    2
 4.43126084E+04-1.31446073E+02 5.19412252E+00 8.51228991E-02 2.64471115E-05    3
-1.01735303E-07 4.78919628E-11 5.30456753E+04 1.01710782E+01                   4
INT279a                 C   4H   7N   8O   7G    200.00   5000.00 1000.00      1
 3.23071035E+01 4.42116533E-02-1.83140754E-05 3.44170465E-09-2.41293399E-13    2
 6.30169405E+04-1.35932662E+02 4.84529869E+00 9.38445986E-02-2.34698394E-06    3
-7.27741061E-08 3.78362853E-11 7.17783457E+04 1.20361493E+01                   4
INT249a                 C   4H   7N   7O   6G    200.00   5000.00 1000.00      1
 2.74693544E+01 4.29467728E-02-1.77630740E-05 3.33445430E-09-2.33582306E-13    2
 2.53356533E+04-1.14264637E+02 3.19339657E+00 8.10238676E-02 1.53228575E-05    3
-8.52104503E-08 4.14242538E-11 3.33490788E+04 1.79081867E+01                   4
INT202a                 C   4H   6N   6O   4G    200.00   5000.00 1000.00      1
 2.21860357E+01 3.60512150E-02-1.48802450E-05 2.78939038E-09-1.95208498E-13    2
 3.37171110E+04-8.74111699E+01 2.63740384E+00 6.48900353E-02 1.78387187E-05    3
-7.53971372E-08 3.59821671E-11 4.02511683E+04 1.94455251E+01                   4
INT101a                 C   2H   3N   3O   2G    200.00   5000.00 1000.00      1
 1.16257371E+01 1.63921974E-02-6.73953718E-06 1.25987905E-09-8.79945750E-14    2
 2.36035528E+04-3.13345206E+01 3.82952794E+00 2.64904647E-02 1.06331099E-05    3
-3.45119389E-08 1.60091182E-11 2.62832779E+04 1.16348549E+01                   4
!
INT121a                 C   1H   3N   3O   4G    200.00   5000.00 1000.00      1
 1.42628886E+01 1.65814050E-02-6.77873309E-06 1.26313219E-09-8.80526079E-14    2
-7.14988845E+03-4.40739468E+01 2.92312914E+00 4.14839765E-02-1.34468110E-05    3
-1.66115969E-08 1.08919424E-11-3.76603882E+03 1.59030482E+01                   4
INT121b                 C   1H   3N   3O   4G    200.00   5000.00 1000.00      1
 1.42154573E+01 1.66311078E-02-6.79826816E-06 1.26652431E-09-8.82713917E-14    2
-7.53718898E+03-4.26346704E+01 3.61137131E+00 3.91509976E-02-1.09892011E-05    3
-1.72824565E-08 1.07358385E-11-4.32364700E+03 1.36683035E+01                   4
INT90a                  C   1H   2N   2O   3G    200.00   5000.00 1000.00      1
 1.01708457E+01 1.17200714E-02-4.79174100E-06 8.92921040E-10-6.22460481E-14    2
-1.74916117E+04-2.37108628E+01 3.39811660E+00 2.37871325E-02-1.99686323E-07    3
-1.87181110E-08 9.66239929E-12-1.53252691E+04 1.28162531E+01                   4
INT62a                  C   0H   2N   2O   2G    200.00   5000.00 1000.00      1
 7.11164606E+00 8.26007552E-03-3.23654010E-06 5.86141925E-10-4.00633450E-14    2
 2.58636145E+03-1.16123118E+01 1.01787277E+00 2.40755339E-02-1.35427605E-05    3
-2.73401676E-09 3.86463067E-12 4.25691323E+03 1.99501807E+01                   4
!
INT206e                 C   4H   8N   5O   5G    200.00   5000.00 1000.00      1
 2.44935376E+01 3.86860570E-02-1.56827701E-05 2.90464387E-09-2.01589133E-13    2
 1.07691586E+04-9.70701289E+01 4.58278927E+00 7.48458775E-02-4.44622515E-06    3
-5.22482347E-08 2.74656723E-11 1.71092490E+04 1.01578322E+01                   4
INT132a                 C   3H   6N   3O   3G    200.00   5000.00 1000.00      1
 1.59191937E+01 2.60931798E-02-1.04615249E-05 1.92286496E-09-1.32731316E-13    2
-5.05947745E+03-5.27770525E+01 3.50355624E+00 4.95902547E-02-6.34491524E-06    3
-2.94811615E-08 1.60732482E-11-1.15476988E+03 1.38482672E+01                   4
INT86a                  C   3H   6N   2O   1G    200.00   5000.00 1000.00      1
 9.15576453E+00 2.38212282E-02-9.51066887E-06 1.74230317E-09-1.19959540E-13    2
-1.14396575E+04-2.09464974E+01 4.29968565E+00 1.70042619E-02 4.35174245E-05    3
-6.68867705E-08 2.71540660E-11-9.14866322E+03 8.95887826E+00                   4
INT86e                  C   3H   6N   2O   1G    200.00   5000.00 1000.00      1
 8.17272722E+00 2.49639480E-02-1.00258051E-05 1.84452307E-09-1.27393918E-13    2
-9.96118584E+03-1.98852412E+01 2.22029754E+00 1.29936188E-02 6.91504359E-05    3
-1.00243895E-07 4.07075416E-11-7.06055461E+03 1.74356336E+01                   4
!
INT162b                 C   3H   6N   4O   4G    200.00   5000.00 1000.00      1
 1.85842809E+01 2.99341612E-02-1.21712776E-05 2.25843348E-09-1.56926459E-13    2
-1.72927005E+04-6.17055497E+01 6.76667514E+00 4.28740795E-02 2.03397934E-05    3
-5.72618302E-08 2.57299537E-11-1.30793876E+04 4.10049295E+00                   4
INT132d                 C   2H   4N   4O   3G    200.00   5000.00 1000.00      1
 1.55076614E+01 2.11916165E-02-8.62882615E-06 1.60280009E-09-1.11456298E-13    2
 7.76905127E+03-4.75412514E+01 5.51401182E+00 3.97556295E-02-6.16358012E-06    3
-2.08225532E-08 1.12782874E-11 1.09873352E+04 6.32347996E+00                   4
CH2NHCHO                C   2H   4N   1O   1G    200.00   5000.00 1000.00      1
 7.30822400E+00 1.35701267E-02-5.27727760E-06 9.49010894E-10-6.44760899E-14    2
-4.86073100E+03-1.14213940E+01 3.14968395E+00 2.03775345E-02-1.82806438E-07    3
-1.39738147E-08 7.11501051E-12-3.50924286E+03 1.11295431E+01                   4
!
CH2NCO                  C   2H   2N   1O   1G    200.00   5000.00 1000.00      1
 6.95033695E+00 8.50338064E-03-3.34311524E-06 6.05443576E-10-4.13277228E-14    2
 5.86818985E+03-7.93553783E+00 3.49111499E+00 2.04791606E-02-2.03827781E-05    3
 1.23586867E-08-3.27146604E-12 6.72712630E+03 9.39375919E+00                   4
INT105a                 C   1H   3N   3O   3G    200.00   5000.00 1000.00      1
 1.20779879E+01 1.55668763E-02-6.30642993E-06 1.16772209E-09-8.10355512E-14    2
 2.95609311E+03-3.27519136E+01 4.37114991E+00 2.85340010E-02 1.00243065E-06    3
-2.30641588E-08 1.15816980E-11 5.46850539E+03 9.02509248E+00                   4
INT75f                  C   0H   1N   3O   2G    200.00   5000.00 1000.00      1
 8.67827280E+00 7.28896443E-03-2.98878719E-06 5.57978555E-10-3.89447062E-14    2
 2.79120268E+04-1.66397708E+01 3.49412251E+00 2.17801542E-02-1.72546599E-05    3
 5.86000062E-09-3.82133566E-13 2.93490053E+04 1.01312738E+01                   4
INT120b                 C   0H   0N   4O   4G    200.00   5000.00 1000.00      1
 1.40439767E+01 8.64930978E-03-3.74351725E-06 7.23614604E-10-5.17050685E-14    2
 3.44464773E+04-3.91383964E+01 4.73995913E+00 3.68249672E-02-3.70666074E-05    3
 1.94612735E-08-4.33791376E-12 3.69431898E+04 8.44303349E+00                   4
!
INT295a                 C   4H   7N   8O   8G    200.00   5000.00 1000.00      1
 3.39299656E+01 4.56963804E-02-1.89543695E-05 3.56525373E-09-2.50112676E-13    2
 5.71343600E+04-1.42567805E+02 5.95663933E+00 9.28194034E-02 8.60683140E-06    3
-8.66763198E-08 4.32805631E-11 6.62133661E+04 8.95931896E+00                   4
!
INT74a                  C   1H   2N   2O   2G    200.00   5000.00 1000.00      1
 7.71941245E+00 1.13843987E-02-4.70673806E-06 8.83287818E-10-6.18625024E-14    2
 1.72498903E+04-1.54197688E+01 1.87397659E+00 1.53928516E-02 2.16717319E-05    3
-4.24321063E-08 1.87120447E-11 1.93723435E+04 1.75063717E+01                   4
INT92a                  C   1H   4N   2O   3G    200.00   5000.00 1000.00      1
 1.05553563E+01 1.64993542E-02-6.54027536E-06 1.19358042E-09-8.20091048E-14    2
-1.64549969E+04-2.82499780E+01 2.54606984E+00 2.90745620E-02 5.84479662E-06    3
-3.10783091E-08 1.52388870E-11-1.38578785E+04 1.52355416E+01                   4
INT250a                 C   4H   8N   7O   6G    200.00   5000.00 1000.00      1
 2.87092176E+01 4.41506747E-02-1.81135565E-05 3.38237199E-09-2.36095058E-13    2
 4.88279015E+04-1.21200883E+02 2.76906545E+00 9.08228184E-02-1.28496599E-06    3
-7.16167414E-08 3.72024362E-11 5.70845237E+04 1.85409722E+01                   4
INT220a                 C   3H   6N   7O   5G    200.00   5000.00 1000.00      1
 2.64338454E+01 3.46417379E-02-1.42591939E-05 2.66822363E-09-1.86505150E-13    2
 7.39954899E+04-1.04136690E+02 4.99347227E+00 7.84488269E-02-1.80133195E-05    3
-3.92150831E-08 2.30842113E-11 8.06003771E+04 1.01815579E+01                   4
INT191d                 C   2H   3N   6O   5G    200.00   5000.00 1000.00      1
 2.26831378E+01 2.39832446E-02-1.00379872E-05 1.89918698E-09-1.33761667E-13    2
 7.61885253E+04-8.21746882E+01 5.19022562E+00 6.31227750E-02-2.50454700E-05    3
-1.81779070E-08 1.33041969E-11 8.14458483E+04 1.03591541E+01                   4
INT117b                 C   1H   1N   4O   3G    200.00   5000.00 1000.00      1
 1.31132663E+01 1.24433983E-02-5.26641925E-06 1.00373100E-09-7.10496193E-14    2
 5.30900655E+04-3.64897168E+01 4.22738266E+00 2.99080090E-02-5.77807648E-06    3
-1.62939396E-08 9.15955121E-12 5.58924937E+04 1.11412506E+01                   4
INT232a                 C   4H   6N   7O   5G    200.00   5000.00 1000.00      1
 2.70711507E+01 3.73234758E-02-1.54488826E-05 2.90173961E-09-2.03361125E-13    2
 6.49360448E+04-1.10306546E+02 2.79756721E+00 8.48181216E-02-1.25538829E-05    3
-5.26546466E-08 2.92369631E-11 7.24983372E+04 1.95859976E+01                   4
INT233a                 C   4H   7N   7O   5G    200.00   5000.00 1000.00      1
 2.59063605E+01 4.13663492E-02-1.70738804E-05 3.20057850E-09-2.23985113E-13    2
 4.80906236E+04-1.07088157E+02 3.38007490E+00 7.64652396E-02 1.39372825E-05    3
-7.88635980E-08 3.82564237E-11 5.55503721E+04 1.56480632E+01                   4
RDXRO                   C   3H   6N   5O   4G    200.00   5000.00 1000.00      1
 2.01706497E+01 3.17260390E-02-1.30075385E-05 2.42708762E-09-1.69297374E-13    2
 3.60874750E+04-7.10966680E+01 4.95550175E+00 5.19041232E-02 1.97557564E-05    3
-6.64686944E-08 3.10002536E-11 4.12825179E+04 1.26189916E+01                   4
INT176                  C   3H   6N   5O   4G    200.00   5000.00 1000.00      1
 2.03386122E+01 3.13158020E-02-1.27785442E-05 2.37717541E-09-1.65484965E-13    2
 3.40940966E+04-7.31399046E+01 4.23106028E+00 5.69893403E-02 8.59635692E-06    3
-5.65265366E-08 2.77973396E-11 3.93732754E+04 1.44099979E+01                   4
INT149                  C   2H   5N   4O   4G    200.00   5000.00 1000.00      1
 1.78271613E+01 2.45680678E-02-9.94120038E-06 1.83930553E-09-1.27573411E-13    2
 1.75046742E+04-6.16608127E+01 2.86344117E+00 5.72123546E-02-1.83675579E-05    3
-2.18275256E-08 1.42850486E-11 2.19892201E+04 1.75595842E+01                   4
MNH                     C   1H   3N   2O   2G    200.00   5000.00 1000.00      1
 9.47207696E+00 1.17329687E-02-4.61469569E-06 8.37184469E-10-5.72647338E-14    2
 1.79514033E+04-2.16265082E+01 2.78120046E+00 2.90712012E-02-1.70036130E-05    3
-4.91152249E-10 3.01263330E-12 1.98209072E+04 1.31239598E+01                   4
END

REACTIONS
H2 + M = H + H + M                       0.457E+20   -1.40    104000.00
H2/2.5/ H2O/12.0/  CO/1.9/  CO2/3.8/
O + H2O = OH + OH                        0.297E+07    2.02     13400.00
O+H2<=>H+OH                              0.506E+05    2.67      6290.00
O+O+M<=>O2+M                             0.617E+16   -0.50         0.00
H2/2.5/ H2O/12.0/  CO/1.9/  CO2/3.8/
H+O2<=>O+OH                              1.940E+14    0.00     16440.00
H + O2 (+M) = HO2 (+M)		             0.452E+14	  0.00	       0.00
!    LOW/0.675E-06  1.42 0.0/
!    LOW/6.696E+16 -1.42 0.0/
    LOW/0.67E+20  -1.42 0.00E+00/
    TROE/0.100E+01  0.100E-89   0.100E+91/
    H2/2.5/ H2O/12.0/  CO/1.9/  CO2/3.8/
O+H+M<=>OH+M                             0.472E+19   -1.000        .00
H2/2.5/ H2O/12.0/  CO/1.9/  CO2/3.8/
OH+H2<=>H+H2O                            0.216E+09    1.510    3430.00
H+OH+M<=>H2O+M                           0.221E+23   -2.000        .00
H2/2.5/ H2O/12.0/  CO/1.9/  CO2/3.8/
O+HO2<=>OH+O2                            0.175E+14     .000    -397.00
H+HO2<=>O2+H2                            0.662E+14     .000    2130.00
H+HO2<=>OH+OH                            0.169E+15     .000     874.00
OH+HO2<=>O2+H2O                          0.190E+17   -1.000       0.00
HO2+HO2<=>O2+H2O2                        0.420E+15     .000   11980.00
    DUPLICATE
HO2+HO2<=>O2+H2O2                        1.300E+11     .000    -1629.00
    DUPLICATE
H2O2(+M)<=>OH+OH(+M)                     0.295E+15     .000   48460.00
!LOW  /  0.250E-02    0.00  2960.00/ 
    LOW/0.12E+18 0.00 0.455E+05/
    TROE/0.500E+00  0.100E-89   0.100E+91/
O+H2O2<=>OH+HO2                          0.964E+07    2.000    3970.00
H+H2O2<=>OH+H2O                          0.100E+14     .000    3590.00
H+H2O2<=>HO2+H2                          0.482E+14    0.000    7950.00
OH+H2O2<=>HO2+H2O                        1.000E+12     .000      0.00
    DUPLICATE
OH+H2O2<=>HO2+H2O                        0.5802E+15     .000   9557.00
    DUPLICATE
CH2O+M<=>H+HCO+M                         0.163E+34    -4.10   92550.00
CH2O+M<=>H2+CO+M                         0.825E+16     0.00   69540.00
AR/1.0/
O2+CH2O<=>HO2+HCO                        0.205E+14     .000   38920.00
O+CH2O<=>OH+HCO                          0.181E+14     .000    3078.00
H+CH2O<=>HCO+H2                          1.260E+08     1.62    2163.00
OH+CH2O<=>HCO+H2O                        0.343E+10    1.180    -447.00
HO2+CH2O<=>HCO+H2O2                      0.199E+13     .000   11660.00
HCO+M<=>H+CO+M                           0.185E+18   -1.000   17000.00
H2/1.89/ H2O/12.0/  CO/1.9/  CO2/3.8/ 
HCO+O2<=>HO2+CO                          0.758E+13     .000     406.00
O+HCO<=>OH+CO                            0.300E+14     .000        .00
O+HCO<=>H+CO2                            0.300E+14     .000        .00