units(length='cm', time='s', quantity='mol', act_energy='cal/mol')

ideal_gas(name='gas',
          elements="O H C N Ar",
          species="""AR        H2        H         O         H2O
                     OH        O2        HO2       H2O2      CH2O
                     HCO       CO        CO2       N         NH
                     NO        N2        NO2       N2O       HNO
                     HONO      NO3       HNO3      NH2       NNH
                     NH3       HCN       CN        NCO       HOCN
                     HNCO      HNC       C2N2      NCN       CNO
                     HCNO      H2CN      H2CNH     H2CNO     H2CNNO
                     H2CNNO2   HMX       HMXR      HMXRO     HCOOH
                     HOCO      OCHO      ONNO2     ONTNTA    INT279a
                     INT249a   INT202a   INT101a   INT121a   INT121b
                     INT90a    INT62a    INT206e   INT132a   INT86a
                     INT86e    INT162b   INT132d   CH2NHCHO  CH2NCO
                     INT105a   INT75f    INT120b   INT295a   INT74a
                     INT92a    INT250a   INT220a   INT191d   INT117b
                     INT233a   INT232a   RDXRO     INT176    INT149
                     MNH""",
          reactions='all',
          transport='Mix',
          initial_state=state(temperature=300.0, pressure=OneAtm))

#-------------------------------------------------------------------------------
# Species data
#-------------------------------------------------------------------------------

species(name='AR',
        atoms='Ar:1',
        thermo=(NASA([300.00, 1000.00],
                     [ 2.50000000E+00,  0.00000000E+00,  0.00000000E+00,
                       0.00000000E+00,  0.00000000E+00, -7.45375000E+02,
                       4.36600000E+00]),
                NASA([1000.00, 5000.00],
                     [ 2.50000000E+00,  0.00000000E+00,  0.00000000E+00,
                       0.00000000E+00,  0.00000000E+00, -7.45375000E+02,
                       4.36600000E+00])),
        transport=gas_transport(geom='atom',
                                diam=3.33,
                                well_depth=136.5),
        note='120186')

species(name='H2',
        atoms='H:2',
        thermo=(NASA([200.00, 1000.00],
                     [ 2.34433112E+00,  7.98052075E-03, -1.94781510E-05,
                       2.01572094E-08, -7.37611761E-12, -9.17935173E+02,
                       6.83010238E-01]),
                NASA([1000.00, 3500.00],
                     [ 3.33727920E+00, -4.94024731E-05,  4.99456778E-07,
                      -1.79566394E-10,  2.00255376E-14, -9.50158922E+02,
                      -3.20502331E+00])),
        transport=gas_transport(geom='linear',
                                diam=2.41,
                                well_depth=496.57,
                                polar=0.45,
                                rot_relax=2.0),
        note='TPIS78')

species(name='H',
        atoms='H:1',
        thermo=(NASA([200.00, 1000.00],
                     [ 2.50000000E+00,  7.05332819E-13, -1.99591964E-15,
                       2.30081632E-18, -9.27732332E-22,  2.54736599E+04,
                      -4.46682853E-01]),
                NASA([1000.00, 3500.00],
                     [ 2.50000001E+00, -2.30842973E-11,  1.61561948E-14,
                      -4.73515235E-18,  4.98197357E-22,  2.54736599E+04,
                      -4.46682914E-01])),
        transport=gas_transport(geom='atom',
                                diam=2.24,
                                well_depth=172.86,
                                polar=0.09,
                                rot_relax=2.0),
        note='L7/88')

species(name='O',
        atoms='O:1',
        thermo=(NASA([200.00, 1000.00],
                     [ 3.16826710E+00, -3.27931884E-03,  6.64306396E-06,
                      -6.12806624E-09,  2.11265971E-12,  2.91222592E+04,
                       2.05193346E+00]),
                NASA([1000.00, 3500.00],
                     [ 2.56942078E+00, -8.59741137E-05,  4.19484589E-08,
                      -1.00177799E-11,  1.22833691E-15,  2.92175791E+04,
                       4.78433864E+00])),
        transport=gas_transport(geom='atom',
                                diam=3.54,
                                well_depth=34.06,
                                polar=0.4,
                                rot_relax=2.0),
        note='L1/90')

species(name='H2O',
        atoms='H:2 O:1',
        thermo=(NASA([200.00, 1000.00],
                     [ 4.19864056E+00, -2.03643410E-03,  6.52040211E-06,
                      -5.48797062E-09,  1.77197817E-12, -3.02937267E+04,
                      -8.49032208E-01]),
                NASA([1000.00, 3500.00],
                     [ 3.03399249E+00,  2.17691804E-03, -1.64072518E-07,
                      -9.70419870E-11,  1.68200992E-14, -3.00042971E+04,
                       4.96677010E+00])),
        transport=gas_transport(geom='nonlinear',
                                diam=3.38,
                                well_depth=311.16,
                                dipole=2.16,
                                polar=1.09,
                                rot_relax=2.0),
        note='L8/89')

species(name='OH',
        atoms='H:1 O:1',
        thermo=(NASA([200.00, 1000.00],
                     [ 3.99201543E+00, -2.40131752E-03,  4.61793841E-06,
                      -3.88113333E-09,  1.36411470E-12,  3.61508056E+03,
                      -1.03925458E-01]),
                NASA([1000.00, 3500.00],
                     [ 3.09288767E+00,  5.48429716E-04,  1.26505228E-07,
                      -8.79461556E-11,  1.17412376E-14,  3.85865700E+03,
                       4.47669610E+00])),
        transport=gas_transport(geom='linear',
                                diam=3.34,
                                well_depth=134.35,
                                dipole=1.83,
                                polar=0.75,
                                rot_relax=2.0),
        note='RUS78')

species(name='O2',
        atoms='O:2',
        thermo=(NASA([200.00, 1000.00],
                     [ 3.78245636E+00, -2.99673416E-03,  9.84730201E-06,
                      -9.68129509E-09,  3.24372837E-12, -1.06394356E+03,
                       3.65767573E+00]),
                NASA([1000.00, 3500.00],
                     [ 3.28253784E+00,  1.48308754E-03, -7.57966669E-07,
                       2.09470555E-10, -2.16717794E-14, -1.08845772E+03,
                       5.45323129E+00])),
        transport=gas_transport(geom='linear',
                                diam=3.8,
                                well_depth=97.75,
                                polar=1.17,
                                rot_relax=2.0),
        note='TPIS89')

species(name='HO2',
        atoms='H:1 O:2',
        thermo=(NASA([200.00, 1000.00],
                     [ 4.30179801E+00, -4.74912051E-03,  2.11582891E-05,
                      -2.42763894E-08,  9.29225124E-12,  2.94808040E+02,
                       3.71666245E+00]),
                NASA([1000.00, 3500.00],
                     [ 4.01721090E+00,  2.23982013E-03, -6.33658150E-07,
                       1.14246370E-10, -1.07908535E-14,  1.11856713E+02,
                       3.78510215E+00])),
        transport=gas_transport(geom='nonlinear',
                                diam=3.79,
                                well_depth=202.52,
                                dipole=2.38,
                                polar=1.62,
                                rot_relax=2.0),
        note='L5/89')

species(name='H2O2',
        atoms='H:2 O:2',
        thermo=(NASA([200.00, 1000.00],
                     [ 4.27611269E+00, -5.42822417E-04,  1.67335701E-05,
                      -2.15770813E-08,  8.62454363E-12, -1.77025821E+04,
                       3.43505074E+00]),
                NASA([1000.00, 3500.00],
                     [ 4.16500285E+00,  4.90831694E-03, -1.90139225E-06,
                       3.71185986E-10, -2.87908305E-14, -1.78617877E+04,
                       2.91615662E+00])),
        transport=gas_transport(geom='nonlinear',
                                diam=3.8,
                                well_depth=345.13,
                                dipole=1.73,
                                polar=1.9,
                                rot_relax=2.0),
        note='L7/88')

species(name='CH2O',
        atoms='C:1 H:2 O:1',
        thermo=(NASA([200.00, 1000.00],
                     [ 4.79372315E+00, -9.90833369E-03,  3.73220008E-05,
                      -3.79285261E-08,  1.31772652E-11, -1.43089567E+04,
                       6.02812900E-01]),
                NASA([1000.00, 3500.00],
                     [ 1.76069008E+00,  9.20000082E-03, -4.42258813E-06,
                       1.00641212E-09, -8.83855640E-14, -1.39958323E+04,
                       1.36563230E+01])),
        transport=gas_transport(geom='nonlinear',
                                diam=4.24,
                                well_depth=179.89,
                                dipole=2.46,
                                polar=2.33,
                                rot_relax=2.0),
        note='L8/88')

species(name='HCO',
        atoms='C:1 H:1 O:1',
        thermo=(NASA([200.00, 1000.00],
                     [ 4.22118584E+00, -3.24392532E-03,  1.37799446E-05,
                      -1.33144093E-08,  4.33768865E-12,  3.83956496E+03,
                       3.39437243E+00]),
                NASA([1000.00, 3500.00],
                     [ 2.77217438E+00,  4.95695526E-03, -2.48445613E-06,
                       5.89161778E-10, -5.33508711E-14,  4.01191815E+03,
                       9.79834492E+00])),
        transport=gas_transport(geom='nonlinear',
                                diam=4.95,
                                well_depth=98.17,
                                dipole=1.72,
                                polar=2.23,
                                rot_relax=2.0),
        note='L12/89')

species(name='CO',
        atoms='C:1 O:1',
        thermo=(NASA([200.00, 1000.00],
                     [ 3.57953347E+00, -6.10353680E-04,  1.01681433E-06,
                       9.07005884E-10, -9.04424499E-13, -1.43440860E+04,
                       3.50840928E+00]),
                NASA([1000.00, 3500.00],
                     [ 2.71518561E+00,  2.06252743E-03, -9.98825771E-07,
                       2.30053008E-10, -2.03647716E-14, -1.41518724E+04,
                       7.81868772E+00])),
        transport=gas_transport(geom='linear',
                                diam=5.43,
                                well_depth=48.43,
                                dipole=0.07,
                                polar=1.75,
                                rot_relax=2.0),
        note='TPIS79')

species(name='CO2',
        atoms='C:1 O:2',
        thermo=(NASA([200.00, 1000.00],
                     [ 2.35677352E+00,  8.98459677E-03, -7.12356269E-06,
                       2.45919022E-09, -1.43699548E-13, -4.83719697E+04,
                       9.90105222E+00]),
                NASA([1000.00, 3500.00],
                     [ 3.85746029E+00,  4.41437026E-03, -2.21481404E-06,
                       5.23490188E-10, -4.72084164E-14, -4.87591660E+04,
                       2.27163806E+00])),
        transport=gas_transport(geom='linear',
                                diam=5.22,
                                well_depth=102.99,
                                polar=2.17,
                                rot_relax=2.0),
        note='L7/88')

species(name='N',
        atoms='N:1',
        thermo=(NASA([200.00, 1000.00],
                     [ 2.50000000E+00,  0.00000000E+00,  0.00000000E+00,
                       0.00000000E+00,  0.00000000E+00,  5.61046370E+04,
                       4.19390870E+00]),
                NASA([1000.00, 6000.00],
                     [ 2.41594290E+00,  1.74890650E-04, -1.19023690E-07,
                       3.02262450E-11, -2.03609820E-15,  5.61337730E+04,
                       4.64960960E+00])),
        transport=gas_transport(geom='atom',
                                diam=3.45,
                                well_depth=80.29,
                                polar=0.7,
                                rot_relax=2.0),
        note='L6/88')

species(name='NH',
        atoms='H:1 N:1',
        thermo=(NASA([200.00, 1000.00],
                     [ 3.49290850E+00,  3.11791980E-04, -1.48904840E-06,
                       2.48164420E-09, -1.03569670E-12,  4.18806290E+04,
                       1.84832780E+00]),
                NASA([1000.00, 6000.00],
                     [ 2.78369280E+00,  1.32984300E-03, -4.24780470E-07,
                       7.83485010E-11, -5.50444700E-15,  4.21208480E+04,
                       5.74077990E+00])),
        transport=gas_transport(geom='linear',
                                diam=3.43,
                                well_depth=258.88,
                                dipole=1.71,
                                polar=1.11,
                                rot_relax=2.0),
        note='And94')

species(name='NO',
        atoms='N:1 O:1',
        thermo=(NASA([200.00, 1000.00],
                     [ 4.21847630E+00, -4.63897600E-03,  1.10410220E-05,
                      -9.33613540E-09,  2.80357700E-12,  9.84462300E+03,
                       2.28084640E+00]),
                NASA([1000.00, 6000.00],
                     [ 3.26060560E+00,  1.19110430E-03, -4.29170480E-07,
                       6.94576690E-11, -4.03360990E-15,  9.92097460E+03,
                       6.36930270E+00])),
        transport=gas_transport(geom='linear',
                                diam=3.76,
                                well_depth=145.0,
                                dipole=0.1,
                                polar=1.39,
                                rot_relax=2.0),
        note='RUS78')

species(name='N2',
        atoms='N:2',
        thermo=(NASA([300.00, 1000.00],
                     [ 3.29867700E+00,  1.40824040E-03, -3.96322200E-06,
                       5.64151500E-09, -2.44485400E-12, -1.02089990E+03,
                       3.95037200E+00]),
                NASA([1000.00, 5000.00],
                     [ 2.92664000E+00,  1.48797680E-03, -5.68476000E-07,
                       1.00970380E-10, -6.75335100E-15, -9.22797700E+02,
                       5.98052800E+00])),
        transport=gas_transport(geom='linear',
                                diam=3.77,
                                well_depth=234.93,
                                polar=1.53,
                                rot_relax=2.0),
        note='121286')

species(name='NO2',
        atoms='N:1 O:2',
        thermo=(NASA([200.00, 1000.00],
                     [ 3.94403120E+00, -1.58542900E-03,  1.66578120E-05,
                      -2.04754260E-08,  7.83505640E-12,  2.89661790E+03,
                       6.31199170E+00]),
                NASA([1000.00, 6000.00],
                     [ 4.88475420E+00,  2.17239560E-03, -8.28069060E-07,
                       1.57475100E-10, -1.05108950E-14,  2.31649830E+03,
                      -1.17416950E-01])),
        transport=gas_transport(geom='nonlinear',
                                diam=4.1,
                                well_depth=203.22,
                                dipole=0.34,
                                polar=2.43,
                                rot_relax=2.0),
        note='L7/88')

species(name='N2O',
        atoms='N:2 O:1',
        thermo=(NASA([200.00, 1000.00],
                     [ 2.25715020E+00,  1.13047280E-02, -1.36713190E-05,
                       9.68198060E-09, -2.93071820E-12,  8.74177440E+03,
                       1.07579920E+01]),
                NASA([1000.00, 6000.00],
                     [ 4.82307290E+00,  2.62702510E-03, -9.58508740E-07,
                       1.60007120E-10, -9.77523030E-15,  8.07340480E+03,
                      -2.20172070E+00])),
        transport=gas_transport(geom='nonlinear',
                                diam=4.08,
                                well_depth=285.58,
                                dipole=0.13,
                                polar=2.51,
                                rot_relax=2.0),
        note='L7/88')

species(name='HNO',
        atoms='H:1 N:1 O:1',
        thermo=(NASA([200.00, 1000.00],
                     [ 4.53349160E+00, -5.66961710E-03,  1.84732070E-05,
                      -1.71370940E-08,  5.54545730E-12,  1.15482970E+04,
                       1.74984170E+00]),
                NASA([1000.00, 6000.00],
                     [ 2.97925090E+00,  3.49440590E-03, -7.85497780E-07,
                       5.74795940E-11, -1.93359160E-16,  1.17505820E+04,
                       8.60637280E+00])),
        transport=gas_transport(geom='nonlinear',
                                diam=3.76,
                                well_depth=289.15,
                                dipole=1.79,
                                polar=1.87,
                                rot_relax=2.0),
        note='And93')

species(name='HONO',
        atoms='H:1 N:1 O:2',
        thermo=(NASA([200.00, 1000.00],
                     [ 2.46262439E+00,  1.09947309E-02, -4.15619019E-06,
                      -3.78497959E-09,  2.73824278E-12, -1.03768660E+04,
                       1.26837310E+01]),
                NASA([1000.00, 5000.00],
                     [ 5.27704082E+00,  4.42589199E-03, -1.74373536E-06,
                       3.16949034E-10, -2.17181464E-14, -1.11845046E+04,
                      -2.07227677E+00])),
        transport=gas_transport(geom='nonlinear',
                                diam=4.1,
                                well_depth=326.03,
                                dipole=1.61,
                                polar=2.78,
                                rot_relax=2.0))

species(name='NO3',
        atoms='N:1 O:3',
        thermo=(NASA([398.15, 1000.00],
                     [ 2.17359330E+00,  1.04902685E-02,  1.10472669E-05,
                      -2.81561867E-08,  1.36583960E-11,  7.81290905E+03,
                       1.46022090E+01]),
                NASA([1000.00, 3198.15],
                     [ 7.48347702E+00,  2.57772064E-03, -1.00945831E-06,
                       1.72314063E-10, -1.07154008E-14,  6.12990474E+03,
                      -1.41618136E+01])),
        transport=gas_transport(geom='nonlinear',
                                diam=4.4,
                                well_depth=247.74,
                                polar=3.83,
                                rot_relax=2.0))

species(name='HNO3',
        atoms='H:1 N:1 O:3',
        thermo=(NASA([398.15, 1000.00],
                     [ 1.69329154E+00,  1.90167702E-02, -8.25176697E-06,
                      -6.06113827E-09,  4.65236978E-12, -1.74198909E+04,
                       1.71839838E+01]),
                NASA([1000.00, 3198.15],
                     [ 8.03098942E+00,  4.46958589E-03, -1.72459491E-06,
                       2.91556153E-10, -1.80102702E-14, -1.93138183E+04,
                      -1.62616537E+01])),
        transport=gas_transport(geom='nonlinear',
                                diam=4.41,
                                well_depth=369.57,
                                dipole=2.38,
                                polar=3.49,
                                rot_relax=2.0))

species(name='NH2',
        atoms='H:2 N:1',
        thermo=(NASA([200.00, 1000.00],
                     [ 4.20400290E+00, -2.10613850E-03,  7.10683480E-06,
                      -5.61151970E-09,  1.64407170E-12,  2.18859100E+04,
                      -1.41842480E-01]),
                NASA([1000.00, 6000.00],
                     [ 2.83474210E+00,  3.20730820E-03, -9.33908040E-07,
                       1.37029530E-10, -7.92061440E-15,  2.21719570E+04,
                       6.52041630E+00])),
        transport=gas_transport(geom='nonlinear',
                                diam=3.46,
                                well_depth=498.18,
                                dipole=2.08,
                                polar=1.45,
                                rot_relax=2.0),
        note='And89')

species(name='NNH',
        atoms='H:1 N:2',
        thermo=(NASA([200.00, 1000.00],
                     [ 4.34469270E+00, -4.84970720E-03,  2.00594590E-05,
                      -2.17264640E-08,  7.94695390E-12,  2.87919730E+04,
                       2.97794100E+00]),
                NASA([1000.00, 6000.00],
                     [ 3.76675440E+00,  2.89150820E-03, -1.04166200E-06,
                       1.68425940E-10, -1.00918960E-14,  2.86506970E+04,
                       4.47050670E+00])),
        transport=gas_transport(geom='nonlinear',
                                diam=3.75,
                                well_depth=428.54,
                                dipole=2.0,
                                polar=2.22,
                                rot_relax=2.0),
        note='T07/93')

species(name='NH3',
        atoms='H:3 N:1',
        thermo=(NASA([200.00, 1000.00],
                     [ 4.28602740E+00, -4.66052300E-03,  2.17185130E-05,
                      -2.28088870E-08,  8.26380460E-12, -6.74172850E+03,
                      -6.25372770E-01]),
                NASA([1000.00, 6000.00],
                     [ 2.63445210E+00,  5.66625600E-03, -1.72786760E-06,
                       2.38671610E-10, -1.25787860E-14, -6.54469580E+03,
                       6.56629280E+00])),
        transport=gas_transport(geom='nonlinear',
                                diam=3.45,
                                well_depth=759.99,
                                dipole=1.69,
                                polar=1.75,
                                rot_relax=2.0),
        note='J6/77')

species(name='HCN',
        atoms='C:1 H:1 N:1',
        thermo=(NASA([200.00, 1000.00],
                     [ 2.25898860E+00,  1.00511700E-02, -1.33517630E-05,
                       1.00923490E-08, -3.00890280E-12,  1.47126330E+04,
                       8.91644190E+00]),
                NASA([1000.00, 6000.00],
                     [ 3.80223920E+00,  3.14642280E-03, -1.06321850E-06,
                       1.66197570E-10, -9.79975700E-15,  1.44072920E+04,
                       1.57546010E+00])),
        transport=gas_transport(geom='linear',
                                diam=5.4,
                                well_depth=123.73,
                                dipole=3.06,
                                polar=2.15,
                                rot_relax=2.0),
        note='GRI/98')

species(name='CN',
        atoms='C:1 N:1',
        thermo=(NASA([200.00, 1000.00],
                     [ 3.61293510E+00, -9.55513270E-04,  2.14429770E-06,
                      -3.15163230E-10, -4.64303560E-13,  5.17083400E+04,
                       3.98049950E+00]),
                NASA([1000.00, 6000.00],
                     [ 3.74598050E+00,  4.34507750E-05,  2.97059840E-07,
                      -6.86518060E-11,  4.41341730E-15,  5.15361880E+04,
                       2.78676010E+00])),
        transport=gas_transport(geom='linear',
                                diam=5.56,
                                well_depth=68.07,
                                dipole=1.4,
                                polar=2.93,
                                rot_relax=2.0),
        note='HBH92')

species(name='NCO',
        atoms='C:1 N:1 O:1',
        thermo=(NASA([200.00, 1000.00],
                     [ 2.82693080E+00,  8.80516880E-03, -8.38661340E-06,
                       4.80169640E-09, -1.33135950E-12,  1.46824770E+04,
                       9.55046460E+00]),
                NASA([1000.00, 6000.00],
                     [ 5.15218450E+00,  2.30517610E-03, -8.80331530E-07,
                       1.47890980E-10, -9.09779960E-15,  1.40041230E+04,
                      -2.54426600E+00])),
        transport=gas_transport(geom='linear',
                                diam=5.4,
                                well_depth=127.23,
                                dipole=0.7,
                                polar=2.76,
                                rot_relax=2.0),
        note='EA93')

species(name='HOCN',
        atoms='C:1 H:1 N:1 O:1',
        thermo=(NASA([300.00, 1368.00],
                     [ 3.78604952E+00,  6.88667922E-03, -3.21487864E-06,
                       5.17195767E-10,  1.19360788E-14, -2.82698400E+03,
                       5.63292162E+00]),
                NASA([1368.00, 5000.00],
                     [ 5.89784885E+00,  3.16789393E-03, -1.11801064E-06,
                       1.77243144E-10, -1.04339177E-14, -3.70653331E+03,
                      -6.18167825E+00])),
        transport=gas_transport(geom='nonlinear',
                                diam=5.04,
                                well_depth=215.92,
                                dipole=3.98,
                                polar=2.92,
                                rot_relax=2.0),
        note='BDEA94')

species(name='HNCO',
        atoms='C:1 H:1 N:1 O:1',
        thermo=(NASA([300.00, 1478.00],
                     [ 3.63096317E+00,  7.30282357E-03, -2.28050003E-06,
                      -6.61271298E-10,  3.62235752E-13, -1.55873636E+04,
                       6.19457727E+00]),
                NASA([1478.00, 5000.00],
                     [ 6.22395134E+00,  3.17864004E-03, -1.09378755E-06,
                       1.70735163E-10, -9.95021955E-15, -1.66599344E+04,
                      -8.38224741E+00])),
        transport=gas_transport(geom='nonlinear',
                                diam=5.09,
                                well_depth=228.49,
                                dipole=2.27,
                                polar=2.99,
                                rot_relax=2.0),
        note='BDEA94')

species(name='HNC',
        atoms='C:1 H:1 N:1',
        thermo=(NASA([398.15, 1000.00],
                     [ 2.30186822E+00,  1.54157449E-02, -3.13261898E-05,
                       3.08816218E-08, -1.11912204E-11,  2.19306327E+04,
                       8.14749128E+00]),
                NASA([1000.00, 3198.15],
                     [ 4.22248262E+00,  2.59458082E-03, -8.58480324E-07,
                       1.30744940E-10, -7.50339813E-15,  2.17156730E+04,
                      -7.79706410E-02])),
        transport=gas_transport(geom='linear',
                                diam=5.29,
                                well_depth=166.27,
                                dipole=3.07,
                                polar=2.4,
                                rot_relax=2.0))

species(name='C2N2',
        atoms='C:2 N:2',
        thermo=(NASA([398.15, 1000.00],
                     [ 2.32928126E+00,  2.61540993E-02, -4.90009889E-05,
                       4.61923035E-08, -1.64325831E-11,  3.56900732E+04,
                       9.86348075E+00]),
                NASA([1000.00, 3198.15],
                     [ 6.70549520E+00,  3.64271185E-03, -1.30939702E-06,
                       2.16421413E-10, -1.31193815E-14,  3.48824335E+04,
                      -1.04803146E+01])),
        transport=gas_transport(geom='linear',
                                diam=6.17,
                                well_depth=151.67,
                                dipole=0.86,
                                polar=4.79,
                                rot_relax=2.0))

species(name='NCN',
        atoms='C:1 N:2',
        thermo=(NASA([398.15, 1000.00],
                     [ 2.79807977E+00,  1.00008683E-02, -9.59229469E-06,
                       4.75546842E-09, -1.04340146E-12,  5.24021705E+04,
                       8.62129767E+00]),
                NASA([1000.00, 3198.15],
                     [ 5.68744173E+00,  1.82662756E-03, -7.07546249E-07,
                       1.19515592E-10, -7.31827071E-15,  5.15901177E+04,
                      -6.31954433E+00])),
        transport=gas_transport(geom='linear',
                                diam=5.55,
                                well_depth=156.43,
                                polar=3.27,
                                rot_relax=2.0))

species(name='CNO',
        atoms='C:1 N:1 O:1',
        thermo=(NASA([398.15, 1000.00],
                     [ 3.24202666E+00,  9.60220523E-03, -1.36429297E-05,
                       1.18397251E-08, -4.26992179E-12,  4.56141112E+04,
                       6.97423157E+00]),
                NASA([1000.00, 3198.15],
                     [ 5.33613774E+00,  2.11235559E-03, -8.03844696E-07,
                       1.34732128E-10, -8.27526871E-15,  4.50591489E+04,
                      -3.58481550E+00])),
        transport=gas_transport(geom='linear',
                                diam=5.37,
                                well_depth=116.22,
                                dipole=0.88,
                                polar=3.2,
                                rot_relax=2.0))

species(name='HCNO',
        atoms='C:1 H:1 N:1 O:1',
        thermo=(NASA([300.00, 1382.00],
                     [ 2.64727989E+00,  1.27505342E-02, -1.04794236E-05,
                       4.41432836E-09, -7.57521466E-13,  1.92990252E+04,
                       1.07332972E+01]),
                NASA([1382.00, 5000.00],
                     [ 6.59860456E+00,  3.02778626E-03, -1.07704346E-06,
                       1.71666528E-10, -1.01439391E-14,  1.79661339E+04,
                      -1.03306599E+01])),
        transport=gas_transport(geom='nonlinear',
                                diam=5.2,
                                well_depth=179.56,
                                dipole=3.32,
                                polar=3.3,
                                rot_relax=2.0),
        note='BDEA94')

species(name='H2CN',
        atoms='C:1 H:2 N:1',
        thermo=(NASA([300.00, 1000.00],
                     [ 2.85166100E+00,  5.69523310E-03,  1.07114000E-06,
                      -1.62261200E-09, -2.35110810E-13,  2.86378200E+04,