ELEMENTS
C
H
N
O
Ar
END
SPECIES
HMX
INT249a
t_HONO
NO2
INT295a
c_HONO
CH2N
CH2NH
NO
H2O
ONNO2
ONONO
INT296a
INT296a_RO
INT206e
N2O
INT132a
CH2NNO2
CH2NHCHO
HCN
INT121a
CH2O
INT91a
INT150a
INT120b
CO
INT105a
INT75f
N2H
INT76a
NH2CHO
HNO
NH2NO
N2
NH2CO
HNCO
ONNH
CO2
INT86a
INT85a
INT162b
INT132d
INT85b
CH2NCHO
INT88d
INT202a
INT202c
INT248a
INT101a
INT202c_RO
INT128a_RO
ONTNTA
INT233a
INT279b
INT232a
INT280a
INT280a_RO
INT233a_RO1
INT159a
INT159a_RO
INT85d
CH2NCO
INT206a
INT206b
INT235a
INT235a_RO
INT112a
TAZ
INT104a
INT74c
INT103a
INT103b
INT133a
INT103c_cis
INT249a_RO2
INT175f
INT249e
INT148c
INT325a
INT325a_RO1
INT235b
INT189b
INT325a_RO2
INT251c
INT205c
INT265a
INT161a
INT281a
INT251d
INT177b
INT87d
INT115a
INT114a
INT131a
INT84a
CH2NNO
INT74a
INT84f
HCO
INT148a
INT177a
CH2NCN
INT130a
INT100a
OCN
N2
END
THERMO
HMX                     C   4H   8N   8O   8L    200.00   5000.00 1000.00      1
 0.00000000E+00 0.00000000E+00 0.00000000E+00 0.00000000E+00 0.00000000E+00    2
 0.00000000E+00 0.00000000E+00 5.37310005E+00 8.76553745E-02 3.17182105E-05    3
-1.11300369E-07 5.20459338E-11 8.49173011E+03 0.00000000E+00                   4
INT249a                 C   4H   7N   7O   6L    200.00   5000.00 1000.00      1
 0.00000000E+00 0.00000000E+00 0.00000000E+00 0.00000000E+00 0.00000000E+00    2
 0.00000000E+00 0.00000000E+00 2.08061298E+01 8.10237678E-02 1.53231415E-05    3
-8.52107796E-08 4.14243871E-11 8.62320721E+03 0.00000000E+00                   4
t_HONO                  C   0H   1N   1O   2L    200.00   5000.00 1000.00      1
 0.00000000E+00 0.00000000E+00 0.00000000E+00 0.00000000E+00 0.00000000E+00    2
 0.00000000E+00 0.00000000E+00 2.56120122E+00 1.07674293E-02-4.78587822E-06    3
-2.53387679E-09 2.15547639E-12-1.55165801E+04 0.00000000E+00                   4
NO                      C   0H   0N   1O   1L    200.00   5000.00 1000.00      1
 0.00000000E+00 0.00000000E+00 0.00000000E+00 0.00000000E+00 0.00000000E+00    2
 0.00000000E+00 0.00000000E+00 3.65494214E+00-1.30386745E-03 3.05955701E-06    3
-1.40116225E-09-1.32939226E-14 8.11567504E+03 0.00000000E+00                   4
NO2                     C   0H   0N   1O   2L    200.00   5000.00 1000.00      1
 0.00000000E+00 0.00000000E+00 0.00000000E+00 0.00000000E+00 0.00000000E+00    2
 0.00000000E+00 0.00000000E+00 3.90961394E+00-9.84672489E-04 1.27522044E-05    3
-1.48999274E-08 5.40696031E-12-4.16595598E+02 0.00000000E+00                   4
c_HONO                  C   0H   1N   1O   2L    200.00   5000.00 1000.00      1
 0.00000000E+00 0.00000000E+00 0.00000000E+00 0.00000000E+00 0.00000000E+00    2
 0.00000000E+00 0.00000000E+00 2.72195641E+00 8.07020151E-03 2.62937575E-06    3
-1.02087292E-08 4.94047651E-12-1.52099546E+04 0.00000000E+00                   4
ONNO2                   C   0H   0N   2O   3L    200.00   5000.00 1000.00      1
 0.00000000E+00 0.00000000E+00 0.00000000E+00 0.00000000E+00 0.00000000E+00    2
 0.00000000E+00 0.00000000E+00 1.11736000E+01 2.03629162E-02-2.43744669E-05    3
 1.72656047E-08-5.35649859E-12 1.52044721E+03 0.00000000E+00                   4
H2O                     C   0H   2N   0O   1L    200.00   5000.00 1000.00      1
 0.00000000E+00 0.00000000E+00 0.00000000E+00 0.00000000E+00 0.00000000E+00    2
 0.00000000E+00 0.00000000E+00 4.23113812E+00-2.43002744E-03 7.75131204E-06    3
-7.07249507E-09 2.39889682E-12-3.53848695E+04 0.00000000E+00                   4
INT202a                 C   4H   6N   6O   4L    200.00   5000.00 1000.00      1
 0.00000000E+00 0.00000000E+00 0.00000000E+00 0.00000000E+00 0.00000000E+00    2
 0.00000000E+00 0.00000000E+00 1.77340133E+01 6.48901098E-02 1.78385084E-05    3
-7.53968951E-08 3.59820696E-11 2.06534940E+04 0.00000000E+00                   4
INT202c                 C   4H   6N   6O   4L    200.00   5000.00 1000.00      1
 0.00000000E+00 0.00000000E+00 0.00000000E+00 0.00000000E+00 0.00000000E+00    2
 0.00000000E+00 0.00000000E+00 1.81637928E+01 6.19543800E-02 2.44373441E-05    3
-8.16581172E-08 3.81358128E-11 1.91782392E+04 0.00000000E+00                   4
INT206e                 C   4H   8N   5O   5L    200.00   5000.00 1000.00      1
 0.00000000E+00 0.00000000E+00 0.00000000E+00 0.00000000E+00 0.00000000E+00    2
 0.00000000E+00 0.00000000E+00 1.96794161E+01 7.48458062E-02-4.44602320E-06    3
-5.22484678E-08 2.74657663E-11-1.66052747E+04 0.00000000E+00                   4
N2O                     C   0H   0N   2O   1L    200.00   5000.00 1000.00      1
 0.00000000E+00 0.00000000E+00 0.00000000E+00 0.00000000E+00 0.00000000E+00    2
 0.00000000E+00 0.00000000E+00 2.25965687E+00 1.12134936E-02-1.40807662E-05    3
 1.02614073E-08-3.14755159E-12 7.27688662E+03 0.00000000E+00                   4
INT248a                 C   4H   6N   7O   6L    200.00   5000.00 1000.00      1
 0.00000000E+00 0.00000000E+00 0.00000000E+00 0.00000000E+00 0.00000000E+00    2
 0.00000000E+00 0.00000000E+00 2.01986873E+01 8.97556631E-02-1.22076173E-05    3
-5.79268446E-08 3.20154577E-11 2.66247618E+04 0.00000000E+00                   4
INT233a                 C   4H   7N   7O   5L    200.00   5000.00 1000.00      1
 0.00000000E+00 0.00000000E+00 0.00000000E+00 0.00000000E+00 0.00000000E+00    2
 0.00000000E+00 0.00000000E+00 2.09927880E+01 7.64653099E-02 1.39370824E-05    3
-7.88633661E-08 3.82563299E-11 1.96046954E+04 0.00000000E+00                   4
INT101a                 C   2H   3N   3O   2L    200.00   5000.00 1000.00      1
 0.00000000E+00 0.00000000E+00 0.00000000E+00 0.00000000E+00 0.00000000E+00    2
 0.00000000E+00 0.00000000E+00 1.40153084E+01 2.40164107E-02 1.53540939E-05    3
-3.80235728E-08 1.69501592E-11 1.65286654E+04 0.00000000E+00                   4
INT202c_RO              C   4H   6N   6O   4L    200.00   5000.00 1000.00      1
 0.00000000E+00 0.00000000E+00 0.00000000E+00 0.00000000E+00 0.00000000E+00    2
 0.00000000E+00 0.00000000E+00 1.73032782E+01 6.81358440E-02 1.15457265E-05    3
-7.02663939E-08 3.44355306E-11 2.91852515E+04 0.00000000E+00                   4
INT128a_RO              C   3H   4N   4O   2L    200.00   5000.00 1000.00      1
 0.00000000E+00 0.00000000E+00 0.00000000E+00 0.00000000E+00 0.00000000E+00    2
 0.00000000E+00 0.00000000E+00 1.49765541E+01 3.21274826E-02 2.05269612E-05    3
-5.09670196E-08 2.27498703E-11 2.69728272E+04 0.00000000E+00                   4
CH2NNO2                 C   1H   2N   2O   2L    200.00   5000.00 1000.00      1
 0.00000000E+00 0.00000000E+00 0.00000000E+00 0.00000000E+00 0.00000000E+00    2
 0.00000000E+00 0.00000000E+00 1.01811946E+01 1.83651175E-02 5.13745120E-06    3
-2.07952725E-08 9.82849805E-12 2.51205675E+03 0.00000000E+00                   4
INT128a                 C   3H   4N   4O   2L    200.00   5000.00 1000.00      1
 0.00000000E+00 0.00000000E+00 0.00000000E+00 0.00000000E+00 0.00000000E+00    2
 0.00000000E+00 0.00000000E+00 1.32520779E+01 2.89496524E-02 3.98426612E-05    3
-7.53452295E-08 3.24424442E-11 1.76199312E+04 0.00000000E+00                   4
TAZ                     C   3H   3N   3O   0L    200.00   5000.00 1000.00      1
 0.00000000E+00 0.00000000E+00 0.00000000E+00 0.00000000E+00 0.00000000E+00    2
 0.00000000E+00 0.00000000E+00 2.23670489E+01 9.58559482E-03 5.58039687E-05    3
-8.17513663E-08 3.33678416E-11 1.52859514E+04 0.00000000E+00                   4
INT132a                 C   3H   6N   3O   3L    200.00   5000.00 1000.00      1
 0.00000000E+00 0.00000000E+00 0.00000000E+00 0.00000000E+00 0.00000000E+00    2
 0.00000000E+00 0.00000000E+00 1.35679684E+01 4.95902551E-02-6.34491686E-06    3
-2.94811594E-08 1.60732472E-11-1.62378013E+04 0.00000000E+00                   4
INT235b                 C   4H   7N   6O   6L    200.00   5000.00 1000.00      1
 0.00000000E+00 0.00000000E+00 0.00000000E+00 0.00000000E+00 0.00000000E+00    2
 0.00000000E+00 0.00000000E+00 2.33185290E+01 8.59003058E-02-2.56574984E-05    3
-3.28328408E-08 2.06373457E-11-1.84651148E+02 0.00000000E+00                   4
INT189b                 C   4H   7N   5O   4L    200.00   5000.00 1000.00      1
 0.00000000E+00 0.00000000E+00 0.00000000E+00 0.00000000E+00 0.00000000E+00    2
 0.00000000E+00 0.00000000E+00 2.11010021E+01 5.49799433E-02 2.23672564E-05    3
-6.96712394E-08 3.18063708E-11-6.31694149E+03 0.00000000E+00                   4
INT251c                 C   4H   7N   6O   7L    200.00   5000.00 1000.00      1
 0.00000000E+00 0.00000000E+00 0.00000000E+00 0.00000000E+00 0.00000000E+00    2
 0.00000000E+00 0.00000000E+00 2.31602636E+01 8.94062609E-02-2.10939599E-05    3
-4.26427952E-08 2.50989746E-11-1.06997859E+04 0.00000000E+00                   4
INT205c                 C   4H   7N   5O   5L    200.00   5000.00 1000.00      1
 0.00000000E+00 0.00000000E+00 0.00000000E+00 0.00000000E+00 0.00000000E+00    2
 0.00000000E+00 0.00000000E+00 2.05099882E+01 6.05986745E-02 2.26879282E-05    3
-7.56694087E-08 3.49903701E-11-1.72409398E+04 0.00000000E+00                   4
INT148a                 C   2H   4N   4O   4L    200.00   5000.00 1000.00      1
 0.00000000E+00 0.00000000E+00 0.00000000E+00 0.00000000E+00 0.00000000E+00    2
 0.00000000E+00 0.00000000E+00 1.37648422E+01 4.96995545E-02-9.25820667E-06    3
-2.77886845E-08 1.58511136E-11-4.23886662E+02 0.00000000E+00                   4
CH2NCHO                 C   2H   3N   1O   1L    200.00   5000.00 1000.00      1
 0.00000000E+00 0.00000000E+00 0.00000000E+00 0.00000000E+00 0.00000000E+00    2
 0.00000000E+00 0.00000000E+00 1.38121934E+01 7.48293619E-03 2.42969314E-05    3
-3.49454385E-08 1.37843357E-11-1.08447578E+04 0.00000000E+00                   4
INT91a                  C   0H   1N   3O   3L    200.00   5000.00 1000.00      1
 0.00000000E+00 0.00000000E+00 0.00000000E+00 0.00000000E+00 0.00000000E+00    2
 0.00000000E+00 0.00000000E+00 1.31522337E+01 2.67721212E-02-1.59927946E-05    3
-6.31318811E-10 2.84166674E-12 8.95303360E+03 0.00000000E+00                   4
INT177a                 C   2H   3N   5O   5L    200.00   5000.00 1000.00      1
 0.00000000E+00 0.00000000E+00 0.00000000E+00 0.00000000E+00 0.00000000E+00    2
 0.00000000E+00 0.00000000E+00 2.01000821E+01 6.40701071E-02-4.18314007E-05    3
 4.44438848E-09 4.15090109E-12 1.51158038E+04 0.00000000E+00                   4
INT120b                 C   0H   0N   4O   4L    200.00   5000.00 1000.00      1
 0.00000000E+00 0.00000000E+00 0.00000000E+00 0.00000000E+00 0.00000000E+00    2
 0.00000000E+00 0.00000000E+00 9.70095783E+00 3.72100235E-02-3.77886666E-05    3
 2.00634320E-08-4.52733292E-12 2.63590359E+04 0.00000000E+00                   4
CH2O                    C   1H   2N   0O   1L    200.00   5000.00 1000.00      1
 0.00000000E+00 0.00000000E+00 0.00000000E+00 0.00000000E+00 0.00000000E+00    2
 0.00000000E+00 0.00000000E+00 4.71424058E+00-8.86863776E-03 3.29958853E-05    3
-3.25929887E-08 1.10467905E-11-2.20453199E+04 0.00000000E+00                   4
HCN                     C   1H   1N   1O   0L    200.00   5000.00 1000.00      1
 0.00000000E+00 0.00000000E+00 0.00000000E+00 0.00000000E+00 0.00000000E+00    2
 0.00000000E+00 0.00000000E+00 3.46560881E+00 3.84972536E-03-4.16505386E-06    3
 3.59547579E-09-1.22834466E-12 1.08921171E+04 0.00000000E+00                   4
CH2N                    C   1H   2N   1O   0L    200.00   5000.00 1000.00      1
 0.00000000E+00 0.00000000E+00 0.00000000E+00 0.00000000E+00 0.00000000E+00    2
 0.00000000E+00 0.00000000E+00 3.88318799E+00-2.55765634E-03 2.21984816E-05    3
-2.54612895E-08 9.46102824E-12 2.73181148E+04 0.00000000E+00                   4
CH2NNO                  C   1H   2N   2O   1L    200.00   5000.00 1000.00      1
 0.00000000E+00 0.00000000E+00 0.00000000E+00 0.00000000E+00 0.00000000E+00    2
 0.00000000E+00 0.00000000E+00 1.09031194E+01 1.22257908E-02 5.96075376E-06    3
-1.61076940E-08 7.19073536E-12 1.38129516E+04 0.00000000E+00                   4
INT121a                 C   1H   3N   3O   4L    200.00   5000.00 1000.00      1
 0.00000000E+00 0.00000000E+00 0.00000000E+00 0.00000000E+00 0.00000000E+00    2
 0.00000000E+00 0.00000000E+00 1.32777319E+01 3.54496665E-02 1.16753917E-06    3
-3.04747226E-08 1.56191369E-11-1.54842998E+04 0.00000000E+00                   4
INT150a                 C   1H   2N   4O   5L    200.00   5000.00 1000.00      1
 0.00000000E+00 0.00000000E+00 0.00000000E+00 0.00000000E+00 0.00000000E+00    2
 0.00000000E+00 0.00000000E+00 1.47589884E+01 4.78926860E-02-2.67203967E-05    3
-2.77185849E-09 5.48550829E-12 2.65564111E+03 0.00000000E+00                   4
INT75a                  C   1H   3N   2O   2L    200.00   5000.00 1000.00      1
 0.00000000E+00 0.00000000E+00 0.00000000E+00 0.00000000E+00 0.00000000E+00    2
 0.00000000E+00 0.00000000E+00 1.29224366E+01 2.72983407E-02-1.13884149E-05    3
-6.87045665E-09 5.47378265E-12 1.03680231E+04 0.00000000E+00                   4
INT74a                  C   1H   2N   2O   2L    200.00   5000.00 1000.00      1
 0.00000000E+00 0.00000000E+00 0.00000000E+00 0.00000000E+00 0.00000000E+00    2
 0.00000000E+00 0.00000000E+00 1.24346146E+01 9.80619845E-03 3.46555101E-05    3
-5.46401032E-08 2.28601247E-11 1.13875062E+04 0.00000000E+00                   4
CH2NH                   C   1H   3N   1O   0L    200.00   5000.00 1000.00      1
 0.00000000E+00 0.00000000E+00 0.00000000E+00 0.00000000E+00 0.00000000E+00    2
 0.00000000E+00 0.00000000E+00 9.62481306E+00-1.05112807E-02 4.85317910E-05    3
-5.27527756E-08 1.92173557E-11 2.56840546E+03 0.00000000E+00                   4
INT186b                 C   4H   6N   6O   3L    200.00   5000.00 1000.00      1
 0.00000000E+00 0.00000000E+00 0.00000000E+00 0.00000000E+00 0.00000000E+00    2
 0.00000000E+00 0.00000000E+00 1.84184156E+01 5.70097590E-02 2.36675630E-05    3
-7.57097374E-08 3.50616648E-11 2.95500752E+04 0.00000000E+00                   4
INT186b_RO              C   4H   6N   6O   3L    200.00   5000.00 1000.00      1
 0.00000000E+00 0.00000000E+00 0.00000000E+00 0.00000000E+00 0.00000000E+00    2
 0.00000000E+00 0.00000000E+00 1.76447783E+01 6.35800761E-02 8.90418279E-06    3
-6.19689284E-08 3.04163808E-11 4.07213915E+04 0.00000000E+00                   4
INT112c                 C   3H   4N   4O   1L    200.00   5000.00 1000.00      1
 0.00000000E+00 0.00000000E+00 0.00000000E+00 0.00000000E+00 0.00000000E+00    2
 0.00000000E+00 0.00000000E+00 1.52856416E+01 2.81937726E-02 1.64865599E-05    3
-4.15197747E-08 1.84007208E-11 3.92631009E+04 0.00000000E+00                   4
INT112a                 C   3H   4N   4O   1L    200.00   5000.00 1000.00      1
 0.00000000E+00 0.00000000E+00 0.00000000E+00 0.00000000E+00 0.00000000E+00    2
 0.00000000E+00 0.00000000E+00 1.30224131E+01 2.64309139E-02 3.43101568E-05    3
-6.51661378E-08 2.79592159E-11 2.73129188E+04 0.00000000E+00                   4
INT232a                 C   4H   6N   7O   5L    200.00   5000.00 1000.00      1
 0.00000000E+00 0.00000000E+00 0.00000000E+00 0.00000000E+00 0.00000000E+00    2
 0.00000000E+00 0.00000000E+00 2.04102852E+01 8.48181503E-02-1.25539636E-05    3
-5.26545541E-08 2.92369260E-11 3.40169315E+04 0.00000000E+00                   4
INT233a_RO1             C   4H   7N   7O   5L    200.00   5000.00 1000.00      1
 0.00000000E+00 0.00000000E+00 0.00000000E+00 0.00000000E+00 0.00000000E+00    2
 0.00000000E+00 0.00000000E+00 2.14301729E+01 7.34810527E-02 2.15624223E-05    3
-8.66852028E-08 4.10771951E-11 2.69329133E+04 0.00000000E+00                   4
INT159a                 C   3H   5N   5O   3L    200.00   5000.00 1000.00      1
 0.00000000E+00 0.00000000E+00 0.00000000E+00 0.00000000E+00 0.00000000E+00    2
 0.00000000E+00 0.00000000E+00 1.54124199E+01 4.61937730E-02 2.52482653E-05    3
-6.99714039E-08 3.19928516E-11 1.90679474E+04 0.00000000E+00                   4
CH2NHCHO                C   2H   4N   1O   1L    200.00   5000.00 1000.00      1
 0.00000000E+00 0.00000000E+00 0.00000000E+00 0.00000000E+00 0.00000000E+00    2
 0.00000000E+00 0.00000000E+00 1.32140794E+01 2.03776767E-02-1.83212501E-07    3
-1.39733424E-08 7.11481896E-12-9.37830343E+03 0.00000000E+00                   4
INT86a                  C   3H   6N   2O   1L    200.00   5000.00 1000.00      1
 0.00000000E+00 0.00000000E+00 0.00000000E+00 0.00000000E+00 0.00000000E+00    2
 0.00000000E+00 0.00000000E+00 1.93963074E+01 1.70042334E-02 4.35175047E-05    3
-6.68868627E-08 2.71541030E-11-2.37141325E+04 0.00000000E+00                   4
INT265a                 C   4H   7N   7O   7L    200.00   5000.00 1000.00      1
 0.00000000E+00 0.00000000E+00 0.00000000E+00 0.00000000E+00 0.00000000E+00    2
 0.00000000E+00 0.00000000E+00 2.61987761E+01 8.01352075E-02 1.63387784E-06    3
-6.32272632E-08 3.17314226E-11-1.58149320E+04 0.00000000E+00                   4
INT235a_RO              C   3H   5N   7O   6L    200.00   5000.00 1000.00      1
 0.00000000E+00 0.00000000E+00 0.00000000E+00 0.00000000E+00 0.00000000E+00    2
 0.00000000E+00 0.00000000E+00 2.41606066E+01 7.96692767E-02-2.84206264E-05    3
-2.46303862E-08 1.67957065E-11 1.06131252E+04 0.00000000E+00                   4
INT161a                 C   3H   5N   4O   4L    200.00   5000.00 1000.00      1
 0.00000000E+00 0.00000000E+00 0.00000000E+00 0.00000000E+00 0.00000000E+00    2
 0.00000000E+00 0.00000000E+00 1.74219788E+01 5.90634324E-02-2.34409787E-05    3
-1.44435341E-08 1.08839043E-11 1.19316258E+03 0.00000000E+00                   4
INT251d                 C   3H   5N   7O   7L    200.00   5000.00 1000.00      1
 0.00000000E+00 0.00000000E+00 0.00000000E+00 0.00000000E+00 0.00000000E+00    2
 0.00000000E+00 0.00000000E+00 2.43250770E+01 8.27637946E-02-2.51518858E-05    3
-3.18645115E-08 2.00458832E-11-2.25814980E+03 0.00000000E+00                   4
INT177b                 C   3H   5N   4O   5L    200.00   5000.00 1000.00      1
 0.00000000E+00 0.00000000E+00 0.00000000E+00 0.00000000E+00 0.00000000E+00    2
 0.00000000E+00 0.00000000E+00 1.94929827E+01 6.40222422E-02-2.20061184E-05    3
-2.12417440E-08 1.42823557E-11-8.66427753E+03 0.00000000E+00                   4
INT133a                 C   2H   3N   3O   4L    200.00   5000.00 1000.00      1
 0.00000000E+00 0.00000000E+00 0.00000000E+00 0.00000000E+00 0.00000000E+00    2
 0.00000000E+00 0.00000000E+00 1.55619182E+01 3.72875636E-02-6.75422597E-06    3
-1.84965587E-08 1.01731426E-11-2.20304571E+04 0.00000000E+00                   4
INT103c_cis             C   1H   1N   3O   3L    200.00   5000.00 1000.00      1
 0.00000000E+00 0.00000000E+00 0.00000000E+00 0.00000000E+00 0.00000000E+00    2
 0.00000000E+00 0.00000000E+00 1.42896600E+01 3.47053367E-02-3.40495181E-05    3
 1.81335627E-08-4.16036172E-12 6.18747901E+03 0.00000000E+00                   4
HNO                     C   0H   1N   1O   1L    200.00   5000.00 1000.00      1
 0.00000000E+00 0.00000000E+00 0.00000000E+00 0.00000000E+00 0.00000000E+00    2
 0.00000000E+00 0.00000000E+00 4.51548478E+00-5.06512636E-03 1.50761996E-05    3
-1.27193399E-08 3.70314825E-12 1.16660687E+04 0.00000000E+00                   4
CO                      C   1H   0N   0O   1L    200.00   5000.00 1000.00      1
 0.00000000E+00 0.00000000E+00 0.00000000E+00 0.00000000E+00 0.00000000E+00    2
 0.00000000E+00 0.00000000E+00 3.58558159E+00-6.21237260E-04 9.34448575E-07    3
 8.27523215E-10-7.91533514E-13-1.50913047E+04 0.00000000E+00                   4
CH2NCO                  C   2H   2N   1O   1L    200.00   5000.00 1000.00      1
 0.00000000E+00 0.00000000E+00 0.00000000E+00 0.00000000E+00 0.00000000E+00    2
 0.00000000E+00 0.00000000E+00 1.35555272E+01 2.04791605E-02-2.03827775E-05    3
 1.23586860E-08-3.27146579E-12-2.74182073E+02 0.00000000E+00                   4
INT76a                  C   1H   4N   2O   2L    200.00   5000.00 1000.00      1
 0.00000000E+00 0.00000000E+00 0.00000000E+00 0.00000000E+00 0.00000000E+00    2
 0.00000000E+00 0.00000000E+00 1.27174661E+01 2.42033957E-02 4.75975951E-06    3
-2.46443754E-08 1.19710005E-11-1.67656342E+04 0.00000000E+00                   4
NH2CHO                  C   1H   3N   1O   1L    200.00   5000.00 1000.00      1
 0.00000000E+00 0.00000000E+00 0.00000000E+00 0.00000000E+00 0.00000000E+00    2
 0.00000000E+00 0.00000000E+00 3.48081463E+00 7.36019858E-03 1.45302257E-05    3
-2.30533728E-08 9.43042288E-12-3.09273515E+04 0.00000000E+00                   4
NH2NO                   C   0H   2N   2O   1L    200.00   5000.00 1000.00      1
 0.00000000E+00 0.00000000E+00 0.00000000E+00 0.00000000E+00 0.00000000E+00    2
 0.00000000E+00 0.00000000E+00 3.57204907E+00 6.83785669E-03 9.14364611E-06    3
-1.66927863E-08 7.12323202E-12 1.57558618E+03 0.00000000E+00                   4
INT105a                 C   1H   3N   3O   3L    200.00   5000.00 1000.00      1
 0.00000000E+00 0.00000000E+00 0.00000000E+00 0.00000000E+00 0.00000000E+00    2
 0.00000000E+00 0.00000000E+00 1.44355466E+01 2.85341321E-02 1.00205694E-06    3
-2.30637250E-08 1.15815223E-11-4.87921873E+03 0.00000000E+00                   4
INT75f                  C   0H   1N   3O   2L    200.00   5000.00 1000.00      1
 0.00000000E+00 0.00000000E+00 0.00000000E+00 0.00000000E+00 0.00000000E+00    2
 0.00000000E+00 0.00000000E+00 1.35585328E+01 2.17801711E-02-1.72547086E-05    3
 5.86005767E-09-3.82156853E-13 2.06669403E+04 0.00000000E+00                   4
N2H                     C   0H   1N   2O   0L    200.00   5000.00 1000.00      1
 0.00000000E+00 0.00000000E+00 0.00000000E+00 0.00000000E+00 0.00000000E+00    2
 0.00000000E+00 0.00000000E+00 4.10516626E+00-2.15433031E-03 1.05098741E-05    3
-1.01585719E-08 3.32799471E-12 2.90088007E+04 0.00000000E+00                   4
INT206a                 C   3H   6N   6O   5L    200.00   5000.00 1000.00      1
 0.00000000E+00 0.00000000E+00 0.00000000E+00 0.00000000E+00 0.00000000E+00    2
 0.00000000E+00 0.00000000E+00 1.87196512E+01 6.80468504E-02 5.28040008E-06    3
-6.16560249E-08 3.09427585E-11-2.64655449E+02 0.00000000E+00                   4
INT206b                 C   3H   6N   6O   5L    200.00   5000.00 1000.00      1
 0.00000000E+00 0.00000000E+00 0.00000000E+00 0.00000000E+00 0.00000000E+00    2
 0.00000000E+00 0.00000000E+00 2.18713070E+01 6.44030326E-02-2.77264255E-06    3
-4.53843835E-08 2.34176099E-11-3.03786354E+03 0.00000000E+00                   4
INT235a                 C   3H   5N   7O   6L    200.00   5000.00 1000.00      1
 0.00000000E+00 0.00000000E+00 0.00000000E+00 0.00000000E+00 0.00000000E+00    2
 0.00000000E+00 0.00000000E+00 2.27575999E+01 7.56049152E-02-6.95812288E-06    3
-5.15164147E-08 2.75064468E-11 9.87437951E+03 0.00000000E+00                   4
INT159a_RO              C   3H   5N   5O   3L    200.00   5000.00 1000.00      1
 0.00000000E+00 0.00000000E+00 0.00000000E+00 0.00000000E+00 0.00000000E+00    2
 0.00000000E+00 0.00000000E+00 1.53943034E+01 4.62454868E-02 2.51449627E-05    3
-6.98652811E-08 3.19519050E-11 1.90853595E+04 0.00000000E+00                   4
INT85d                  C   2H   3N   3O   1L    200.00   5000.00 1000.00      1
 0.00000000E+00 0.00000000E+00 0.00000000E+00 0.00000000E+00 0.00000000E+00    2
 0.00000000E+00 0.00000000E+00 1.91916779E+01 2.03473752E-02 1.21511701E-05    3
-3.03004258E-08 1.34256213E-11 2.82201725E+04 0.00000000E+00                   4
HCOOH                   C   1H   2N   0O   2L    200.00   5000.00 1000.00      1
 0.00000000E+00 0.00000000E+00 0.00000000E+00 0.00000000E+00 0.00000000E+00    2
 0.00000000E+00 0.00000000E+00 3.02895199E+00 4.13572849E-03 1.96224071E-05    3
-2.84677728E-08 1.15444130E-11-5.21741315E+04 0.00000000E+00                   4
INT88d                  C   2H   4N   2O   2L    200.00   5000.00 1000.00      1
 0.00000000E+00 0.00000000E+00 0.00000000E+00 0.00000000E+00 0.00000000E+00    2
 0.00000000E+00 0.00000000E+00 1.89343345E+01 2.03741757E-02 2.19785520E-05    3
-4.30799533E-08 1.84873356E-11-5.43874213E+03 0.00000000E+00                   4
INT162b                 C   3H   6N   4O   4L    200.00   5000.00 1000.00      1
 0.00000000E+00 0.00000000E+00 0.00000000E+00 0.00000000E+00 0.00000000E+00    2
 0.00000000E+00 0.00000000E+00 1.93471891E+01 4.28740911E-02 2.03397607E-05    3
-5.72617924E-08 2.57299384E-11-2.94208479E+04 0.00000000E+00                   4
INT132d                 C   2H   4N   4O   3L    200.00   5000.00 1000.00      1
 0.00000000E+00 0.00000000E+00 0.00000000E+00 0.00000000E+00 0.00000000E+00    2
 0.00000000E+00 0.00000000E+00 1.55784201E+01 3.97556627E-02-6.16367422E-06    3
-2.08224444E-08 1.12782435E-11-2.41493902E+03 0.00000000E+00                   4
INT85b                  C   3H   5N   2O   1L    200.00   5000.00 1000.00      1
 0.00000000E+00 0.00000000E+00 0.00000000E+00 0.00000000E+00 0.00000000E+00    2
 0.00000000E+00 0.00000000E+00 1.99748780E+01 1.45572980E-02 4.29409518E-05    3
-6.54803690E-08 2.66722977E-11 8.49066938E+03 0.00000000E+00                   4
INT161f                 C   3H   5N   4O   4L    200.00   5000.00 1000.00      1
 0.00000000E+00 0.00000000E+00 0.00000000E+00 0.00000000E+00 0.00000000E+00    2
 0.00000000E+00 0.00000000E+00 1.93973096E+01 4.24241261E-02 1.66291116E-05    3
-5.36579597E-08 2.46700734E-11-2.24540700E+03 0.00000000E+00                   4
INT131b                 C   2H   3N   4O   3L    200.00   5000.00 1000.00      1
 0.00000000E+00 0.00000000E+00 0.00000000E+00 0.00000000E+00 0.00000000E+00    2
 0.00000000E+00 0.00000000E+00 1.58649449E+01 3.81728549E-02-7.35092301E-06    3
-1.97388479E-08 1.11368141E-11 2.27489908E+04 0.00000000E+00                   4
INT87d                  C   2H   3N   2O   2L    200.00   5000.00 1000.00      1
 0.00000000E+00 0.00000000E+00 0.00000000E+00 0.00000000E+00 0.00000000E+00    2
 0.00000000E+00 0.00000000E+00 1.70692511E+01 4.04590009E-02-3.51908941E-05    3
 1.50482136E-08-2.25865922E-12 2.82185585E+01 0.00000000E+00                   4
INT115a                 C   3H   5N   3O   2L    200.00   5000.00 1000.00      1
 0.00000000E+00 0.00000000E+00 0.00000000E+00 0.00000000E+00 0.00000000E+00    2
 0.00000000E+00 0.00000000E+00 1.54761968E+01 2.64489297E-02 2.79383257E-05    3
-5.41061116E-08 2.29308640E-11-2.56895756E+03 0.00000000E+00                   4
INT114a                 C   3H   4N   3O   2L    200.00   5000.00 1000.00      1
 0.00000000E+00 0.00000000E+00 0.00000000E+00 0.00000000E+00 0.00000000E+00    2
 0.00000000E+00 0.00000000E+00 1.46026459E+01 3.53955079E-02-9.35381052E-07    3
-2.45184519E-08 1.24540688E-11 1.75130298E+04 0.00000000E+00                   4
INT131a                 C   3H   5N   3O   3L    200.00   5000.00 1000.00      1
 0.00000000E+00 0.00000000E+00 0.00000000E+00 0.00000000E+00 0.00000000E+00    2
 0.00000000E+00 0.00000000E+00 1.49142579E+01 3.25397233E-02 2.68062553E-05    3
-5.85435304E-08 2.55409429E-11-1.64951733E+04 0.00000000E+00                   4
INT207a                 C   3H   5N   5O   6L    200.00   5000.00 1000.00      1
 0.00000000E+00 0.00000000E+00 0.00000000E+00 0.00000000E+00 0.00000000E+00    2
 0.00000000E+00 0.00000000E+00 2.14915170E+01 6.31745835E-02-5.33131003E-06    3
-4.15450921E-08 2.18551286E-11-2.59173762E+04 0.00000000E+00                   4
INT177c                 C   2H   3N   5O   5L    200.00   5000.00 1000.00      1
 0.00000000E+00 0.00000000E+00 0.00000000E+00 0.00000000E+00 0.00000000E+00    2
 0.00000000E+00 0.00000000E+00 2.11182926E+01 5.50909733E-02-2.18036917E-05    3
-1.39336474E-08 1.02819983E-11 1.03549231E+03 0.00000000E+00                   4
INT191b                 C   3H   5N   5O   5L    200.00   5000.00 1000.00      1
 0.00000000E+00 0.00000000E+00 0.00000000E+00 0.00000000E+00 0.00000000E+00    2
 0.00000000E+00 0.00000000E+00 2.15978136E+01 5.87279424E-02-7.11125604E-06    3
-3.45551856E-08 1.83818491E-11-1.64538955E+04 0.00000000E+00                   4
INT161b                 C   2H   3N   5O   4L    200.00   5000.00 1000.00      1
 0.00000000E+00 0.00000000E+00 0.00000000E+00 0.00000000E+00 0.00000000E+00    2
 0.00000000E+00 0.00000000E+00 1.84251164E+01 5.23202952E-02-2.70186270E-05    3
-3.88352885E-09 5.80046401E-12 9.79036209E+03 0.00000000E+00                   4
HNCO                    C   1H   1N   1O   1L    200.00   5000.00 1000.00      1
 0.00000000E+00 0.00000000E+00 0.00000000E+00 0.00000000E+00 0.00000000E+00    2
 0.00000000E+00 0.00000000E+00 2.09872424E+00 1.63337883E-02-2.08850363E-05    3
 1.46522619E-08-4.13904965E-12-2.05405202E+04 0.00000000E+00                   4
INT90b                  C   1H   2N   2O   3L    200.00   5000.00 1000.00      1
 0.00000000E+00 0.00000000E+00 0.00000000E+00 0.00000000E+00 0.00000000E+00    2
 0.00000000E+00 0.00000000E+00 1.30552220E+01 3.72732132E-02-3.91395682E-05    3
 2.19491762E-08-5.06276135E-12-3.98160412E+04 0.00000000E+00                   4
CO2                     C   1H   0N   0O   2L    200.00   5000.00 1000.00      1
 0.00000000E+00 0.00000000E+00 0.00000000E+00 0.00000000E+00 0.00000000E+00    2
 0.00000000E+00 0.00000000E+00 2.31739510E+00 9.11161962E-03-8.05409996E-06    3
 3.79734482E-09-7.30431888E-13-5.05382568E+04 0.00000000E+00                   4
ONNH                    C   0H   1N   2O   1L    200.00   5000.00 1000.00      1
 0.00000000E+00 0.00000000E+00 0.00000000E+00 0.00000000E+00 0.00000000E+00    2
 0.00000000E+00 0.00000000E+00 3.29025107E+00 3.19508303E-03 1.26368681E-05    3
-1.85115501E-08 7.44500413E-12 2.39046012E+04 0.00000000E+00                   4
NH2CO                   C   1H   2N   1O   1L    200.00   5000.00 1000.00      1
 0.00000000E+00 0.00000000E+00 0.00000000E+00 0.00000000E+00 0.00000000E+00    2
 0.00000000E+00 0.00000000E+00 3.19723443E+00 1.16629906E-02-4.84560290E-06    3
-1.47169978E-09 1.41088197E-12-1.02344562E+04 0.00000000E+00                   4
INT84f                  C   2H   2N   3O   1L    200.00   5000.00 1000.00      1
 0.00000000E+00 0.00000000E+00 0.00000000E+00 0.00000000E+00 0.00000000E+00    2
 0.00000000E+00 0.00000000E+00 1.86917153E+01 2.91705006E-02-1.74555171E-05    3
 7.68307314E-11 2.72510575E-12 5.35907754E+04 0.00000000E+00                   4